! NoMOPrint PrintBasis #MINIPRINT SMALLPRINT LARGEPRINT
! ALLPOP XYZFILE
#! BP86 3-21G   TightSCF
! ENGRAD
! B3LYP NormalPNO PModel #DecontractAux
#! VerySlowConv 
 %maxcore 5000
 %scf  maxiter   500  end 

%pal
    nprocs 32
end

%basis
    NewGTO O    # New basis for oxygen
        "aug-cc-pVTZ"
    end
    NewGTO C    # New basis for carbon
        "aug-cc-pVTZ"
    end
    NewGTO H    # New basis for hydrogen
        "cc-pVTZ"
    end
end

* xyz 0   1
  C  12.78  10.95  10.8  #1
  H  12.94  10.39  9.97  #2
  H  13.12  10.29  11.66  #3
  C  11.34  11.36  10.8  #4
  H  11.2  12.06  11.61  #5
  H  11.29  11.88  9.84  #6
  C  10.36  10.16  10.98  #7
  H  10.35  9.99  12.04  #8
  H  10.61  9.3  10.35  #9
  C  8.93  10.56  10.79  #10
  H  8.81  10.96  9.75  #11
  H  8.63  11.41  11.48  #12
  O  8.06  9.47  10.81  #13
  H  8.02  9.32  11.75  #14
  O  13.77  12.03  10.7  #15
  H  13.72  12.49  11.58  #16
  O  13.38  13.05  13.26  #17
  H  14.29  13.35  13.38  #18
  H  12.75  13.83  13.12  #19
  O  9.26  6.62  12.53  #20
  H  9.05  6.9  13.48  #21
  H  8.39  6.43  12.19  #22
  O  13.35  7.54  9.17  #23
  H  13.1  7.73  10.07  #24
  H  12.76  6.84  8.85  #25
  O  12.68  13.61  8.56  #26
  H  12.54  12.93  7.94  #27
  H  13.19  13.15  9.26  #28
  O  11.88  7.48  11.71  #29
  H  12.44  6.81  12.08  #30
  H  10.94  7.3  12.03  #31
  O  7.39  13.49  8.11  #32
  H  7.39  13.1  7.18  #33
  H  8.34  13.36  8.25  #34
  O  11.26  9.04  7.77  #35
  H  10.93  8.44  7.09  #36
  H  11.86  8.51  8.26  #37
  O  10  14.02  9.02  #38
  H  10  14.73  9.62  #39
  H  10.93  13.93  8.85  #40
  O  7.41  9.51  13.68  #41
  H  7.64  10.46  13.68  #42
  H  6.45  9.5  13.7  #43
  O  6.36  6.2  11.49  #44
  H  5.5  6.08  11.9  #45
  H  6.67  5.53  10.89  #46
  O  10.45  4.58  10.86  #47
  H  10.17  5.42  11.23  #48
  H  10.53  4.83  9.9  #49
  O  10.51  4.22  13.78  #50
  H  10.24  3.96  14.63  #51
  H  9.71  4.47  13.26  #52
  O  12.73  9.17  14.22  #53
  H  12.61  8.37  13.68  #54
  H  12.96  9.02  15.19  #55
  O  16.07  13.36  13.34  #56
  H  16.39  13.44  14.26  #57
  H  16.41  12.46  13.21  #58
  O  8.22  7.22  15.09  #59
  H  7.48  6.61  15.17  #60
  H  7.94  8.11  14.78  #61
  O  14.22  12.14  15.61  #62
  H  13.68  12.44  14.86  #63
  H  14.36  12.98  16.08  #64
  O  8.78  8.16  8.73  #65
  H  8.61  8.54  9.6  #66
  H  9.65  8.45  8.49  #67
  O  16.1  7.89  8.15  #68
  H  16.67  8.33  8.79  #69
  H  15.19  7.85  8.44  #70
  O  11.68  5.61  7.87  #71
  H  11.03  5.43  7.17  #72
  H  11.98  4.77  8.16  #73
  O  12.64  5.88  13.91  #74
  H  11.97  5.17  13.9  #75
  H  13.03  5.81  14.79  #76
  O  10.93  14.4  13.64  #77
  H  10.36  14.88  12.98  #78
  H  11.55  15.05  13.96  #79
  O  13.33  16.13  7.55  #80
  H  13.25  15.3  8.06  #81
  H  13.34  16.76  8.29  #82
  O  11.91  11.64  6.78  #83
  H  12.26  11.77  5.87  #84
  H  11.96  10.71  7.09  #85
  O  10.45  10.38  15.25  #86
  H  11.19  9.94  14.72  #87
  H  9.65  10.47  14.74  #88
  O  16.2  11.69  9.62  #89
  H  16.45  10.88  9.1  #90
  H  15.33  11.67  10.1  #91
  Q  0.6645  18.46$  7.34$  17.94$
  Q  0.6645  18.85$  5.89$  18.17$
  Q  -1.3290  18.39$  6.52$  17.85$
  Q  0.6645  0.95$  4.81$  9.16$
  Q  0.6645  1.32$  3.5$  9.8$
  Q  -1.3290  0.8$  4.03$  9.4$
  Q  0.6645  4.73$  0.62$  12.13$
  Q  0.6645  4.06$  1.69$  13.03$
  Q  -1.3290  4.67$  1.32$  12.61$
  Q  0.6645  9.13$  19.7$  13.48$
  Q  0.6645  8.04$  19.51$  12.33$
  Q  -1.3290  8.34$  19.52$  13.14$
  Q  0.6645  22.57$  7.52$  15.52$
  Q  0.6645  21.06$  7.51$  15.25$
  Q  -1.3290  21.77$  7.86$  15.57$
  Q  0.6645  21.36$  10.43$  9.74$
  Q  0.6645  20.16$  11.16$  10.39$
  Q  -1.3290  20.56$  10.53$  10.02$
  Q  0.6645  4.46$  2.57$  7.93$
  Q  0.6645  3.37$  2.81$  6.8$
  Q  -1.3290  4.16$  2.77$  7.15$
  Q  0.6645  4.41$  8.01$  16.54$
  Q  0.6645  3.85$  7.3$  17.78$
  Q  -1.3290  4.09$  7.39$  16.98$
  Q  0.6645  6.85$  13.81$  13.15$
  Q  0.6645  6.08$  13.86$  11.78$
  Q  -1.3290  6.35$  14.15$  12.57$
  Q  0.6645  13.33$  20.39$  15.8$
  Q  0.6645  12.4$  20.78$  17.07$
  Q  -1.3290  12.67$  20.32$  16.4$
  Q  0.6645  14.85$  10.77$  1.79$
  Q  0.6645  13.84$  10.54$  3.05$
  Q  -1.3290  14.57$  10.47$  2.57$
  Q  0.6645  15.24$  8.33$  2.66$
  Q  0.6645  15.4$  7.8$  4.08$
  Q  -1.3290  15.23$  7.75$  3.27$
  Q  0.6645  12.42$  0.18$  8.84$
  Q  0.6645  11.23$  0.4$  7.77$
  Q  -1.3290  11.74$  0.59$  8.45$
  Q  0.6645  4.86$  13.64$  9.75$
  Q  0.6645  6.33$  13.45$  9.53$
  Q  -1.3290  5.62$  13.38$  10$
  Q  0.6645  0.29$  8.74$  10.61$
  Q  0.6645  1.39$  9.48$  9.81$
  Q  -1.3290  1.06$  8.84$  10.28$
  Q  0.6645  14.02$  5.75$  17.2$
  Q  0.6645  12.66$  6.46$  17$
  Q  -1.3290  13.28$  5.9$  16.84$
  Q  0.6645  20.51$  6.26$  8.38$
  Q  0.6645  20.07$  7.7$  8.27$
  Q  -1.3290  20.29$  7.03$  8.68$
  Q  0.6645  6.43$  7.45$  4.68$
  Q  0.6645  5.74$  8.87$  4.35$
  Q  -1.3290  5.91$  8.15$  4.83$
  Q  0.6645  3.87$  15.61$  6.05$
  Q  0.6645  3.16$  15.16$  4.66$
  Q  -1.3290  3.62$  15.68$  5.22$
  Q  0.6645  15.59$  8.96$  17.29$
  Q  0.6645  16.89$  9.58$  17$
  Q  -1.3290  16.28$  9.37$  17.51$
  Q  0.6645  12.81$  18.56$  17.24$
  Q  0.6645  12.08$  17.34$  17.91$
  Q  -1.3290  12.66$  17.73$  17.45$
  Q  0.6645  6.86$  1.09$  8.11$
  Q  0.6645  7.85$  -0.05$  7.73$
  Q  -1.3290  7.48$  0.72$  7.67$
  Q  0.6645  11.96$  7.85$  18.76$
  Q  0.6645  10.73$  7.39$  17.91$
  Q  -1.3290  11.37$  7.3$  18.44$
  Q  0.6645  16.94$  13.97$  19.37$
  Q  0.6645  15.48$  13.35$  19.22$
  Q  -1.3290  16.32$  13.43$  19.08$
  Q  0.6645  11.56$  14.3$  2.62$
  Q  0.6645  10.65$  13.21$  2.81$
  Q  -1.3290  11.31$  13.56$  2.48$
  Q  0.6645  17.62$  10.63$  12.88$
  Q  0.6645  17.18$  11.23$  11.42$
  Q  -1.3290  17.55$  11.19$  12.21$
  Q  0.6645  8.32$  6.66$  7.7$
  Q  0.6645  8.44$  5.09$  7.62$
  Q  -1.3290  8.33$  5.9$  7.33$
  Q  0.6645  3.68$  11.1$  12.57$
  Q  0.6645  2.69$  11.58$  13.63$
  Q  -1.3290  3.32$  11.08$  13.33$
  Q  0.6645  17.67$  19.35$  6.82$
  Q  0.6645  17.16$  18$  7.56$
  Q  -1.3290  17.17$  18.82$  7.29$
  Q  0.6645  18.41$  18.72$  16.98$
  Q  0.6645  16.94$  18.48$  16.77$
  Q  -1.3290  17.7$  18.79$  16.56$
  Q  0.6645  4.86$  11.69$  18.92$
  Q  0.6645  6.15$  11.04$  19.29$
  Q  -1.3290  5.42$  11.35$  19.44$
  Q  0.6645  3.41$  2.77$  10.76$
  Q  0.6645  3.65$  4.2$  10.21$
  Q  -1.3290  3.28$  3.43$  10.24$
  Q  0.6645  9.6$  3.68$  18.07$
  Q  0.6645  9.02$  4.18$  19.5$
  Q  -1.3290  9.51$  3.69$  18.94$
  Q  0.6645  15.29$  10.67$  14.48$
  Q  0.6645  14.94$  9.16$  14.13$
  Q  -1.3290  15.43$  9.83$  14.33$
  Q  0.6645  10.58$  2.05$  13.09$
  Q  0.6645  9.25$  1.37$  13.36$
  Q  -1.3290  9.99$  1.46$  13$
  Q  0.6645  10.83$  17.53$  5.89$
  Q  0.6645  11.64$  16.4$  6.53$
  Q  -1.3290  11.31$  16.84$  5.88$
  Q  0.6645  8.76$  12.03$  4.37$
  Q  0.6645  9.74$  11.59$  3.42$
  Q  -1.3290  9.13$  12.05$  3.63$
  Q  0.6645  7.56$  14.77$  1.74$
  Q  0.6645  7.73$  13.36$  2.2$
  Q  -1.3290  7.58$  13.93$  1.65$
  Q  0.6645  2.29$  12.87$  5.24$
  Q  0.6645  0.92$  13.19$  5.26$
  Q  -1.3290  1.64$  13.2$  5.58$
  Q  0.6645  17.83$  15.54$  15.84$
  Q  0.6645  17.19$  16.71$  15.01$
  Q  -1.3290  17.26$  16.11$  15.62$
  Q  0.6645  20.81$  13.45$  8.82$
  Q  0.6645  20.42$  12.11$  8.44$
  Q  -1.3290  20.37$  12.93$  8.39$
  Q  0.6645  6.28$  8.54$  18.58$
  Q  0.6645  6.12$  7.74$  19.81$
  Q  -1.3290  6.45$  7.91$  19.09$
  Q  0.6645  8.68$  7.97$  2.08$
  Q  0.6645  9.04$  7.81$  0.52$
  Q  -1.3290  8.56$  7.71$  1.28$
  Q  0.6645  20.76$  18.03$  9.69$
  Q  0.6645  20.13$  17.61$  8.27$
  Q  -1.3290  20.26$  17.6$  9.12$
  Q  0.6645  13.47$  3.52$  15.6$
  Q  0.6645  13.57$  2.3$  16.44$
  Q  -1.3290  13.3$  2.75$  15.78$
  Q  0.6645  15.61$  14.22$  3.54$
  Q  0.6645  16.01$  14.36$  5.02$
  Q  -1.3290  15.48$  14.31$  4.39$
  Q  0.6645  6.26$  18.32$  18.33$
  Q  0.6645  6.54$  17.7$  16.92$
  Q  -1.3290  6.07$  17.96$  17.57$
  Q  0.6645  21.79$  8.97$  13.66$
  Q  0.6645  21.42$  9.78$  12.48$
  Q  -1.3290  21.44$  9.11$  12.92$
  Q  0.6645  20.83$  12.19$  12.66$
  Q  0.6645  21.41$  11.53$  13.92$
  Q  -1.3290  21.37$  11.72$  13.1$
  Q  0.6645  13.96$  17.43$  6.19$
  Q  0.6645  15.38$  18.15$  6.07$
  Q  -1.3290  14.58$  17.93$  5.85$
  Q  0.6645  4.32$  12.04$  5.55$
  Q  0.6645  5.03$  13.14$  4.83$
  Q  -1.3290  4.45$  12.56$  4.91$
  Q  0.6645  11.04$  11.99$  16.31$
  Q  0.6645  10.75$  12.31$  17.72$
  Q  -1.3290  11.06$  12.48$  16.99$
  Q  0.6645  4.4$  8.51$  8.24$
  Q  0.6645  4.7$  8.47$  6.66$
  Q  -1.3290  4.29$  8.71$  7.38$
  Q  0.6645  1.51$  7.02$  9.53$
  Q  0.6645  1.7$  6.83$  8.12$
  Q  -1.3290  1.83$  6.63$  8.91$
  Q  0.6645  9.98$  11.66$  20.19$
  Q  0.6645  9.73$  10.75$  19.03$
  Q  -1.3290  10.23$  11.2$  19.54$
  Q  0.6645  15.54$  5.22$  18.84$
  Q  0.6645  16.62$  6.01$  18.1$
  Q  -1.3290  15.88$  5.63$  18.19$
  Q  0.6645  9.13$  3.1$  4.17$
  Q  0.6645  8.63$  3.36$  5.58$
  Q  -1.3290  9.23$  3.27$  5$
  Q  0.6645  5.52$  2.87$  15.5$
  Q  0.6645  6.4$  3.93$  16.12$
  Q  -1.3290  6.25$  3.19$  15.75$
  Q  0.6645  12.86$  6.95$  2.82$
  Q  0.6645  11.97$  8.05$  2.25$
  Q  -1.3290  12.13$  7.37$  2.69$
  Q  0.6645  6.28$  14.94$  5.31$
  Q  0.6645  7.55$  14.26$  4.87$
  Q  -1.3290  6.76$  14.27$  5.1$
  Q  0.6645  9.15$  15.07$  6.68$
  Q  0.6645  9.89$  15.66$  5.41$
  Q  -1.3290  9.23$  15.36$  5.88$
  Q  0.6645  18.31$  14.28$  5.81$
  Q  0.6645  17.99$  13.17$  6.69$
  Q  -1.3290  17.86$  13.65$  6.04$
  Q  0.6645  16.26$  18.33$  11.29$
  Q  0.6645  15.56$  17.02$  11.02$
  Q  -1.3290  15.59$  17.86$  11.15$
  Q  0.6645  11.66$  10.25$  2.22$
  Q  0.6645  11.28$  9.79$  3.6$
  Q  -1.3290  11.51$  10.36$  3.04$
  Q  0.6645  19.55$  14.81$  14.36$
  Q  0.6645  18.84$  13.86$  15.49$
  Q  -1.3290  19.39$  14.5$  15.16$
  Q  0.6645  14.29$  5.15$  13.69$
  Q  0.6645  15.76$  5.5$  14.02$
  Q  -1.3290  15.09$  4.99$  13.88$
  Q  0.6645  2.36$  11.07$  18.58$
  Q  0.6645  2.82$  12.52$  18.27$
  Q  -1.3290  2.75$  11.68$  18.14$
  Q  0.6645  8.42$  7.64$  18.31$
  Q  0.6645  8.71$  7.61$  16.82$
  Q  -1.3290  8.8$  7.9$  17.61$
  Q  0.6645  1.33$  8.54$  6.07$
  Q  0.6645  2.68$  8.17$  6.72$
  Q  -1.3290  1.87$  8.04$  6.49$
  Q  0.6645  13.94$  10.18$  16.35$
  Q  0.6645  12.99$  9.48$  17.3$
  Q  -1.3290  13.58$  9.51$  16.71$
  Q  0.6645  9.09$  13.29$  14.01$
  Q  0.6645  8.12$  12.79$  14.95$
  Q  -1.3290  8.36$  13$  14.2$
  Q  0.6645  7.69$  17.33$  12.8$
  Q  0.6645  6.67$  16.16$  12.42$
  Q  -1.3290  7.15$  16.88$  12.31$
  Q  0.6645  19.08$  10.05$  2.64$
  Q  0.6645  18.3$  10.91$  3.68$
  Q  -1.3290  18.84$  10.77$  3.05$
  Q  0.6645  6.4$  10.77$  2.77$
  Q  0.6645  5.23$  11.35$  3.49$
  Q  -1.3290  5.72$  10.73$  3.26$
  Q  0.6645  0.79$  15.19$  8.25$
  Q  0.6645  1.59$  14.71$  6.97$
  Q  -1.3290  1.41$  15.18$  7.66$
  Q  0.6645  12.43$  16.93$  15.55$
  Q  0.6645  13.39$  15.89$  15.38$
  Q  -1.3290  12.81$  16.41$  15.09$
  Q  0.6645  12.8$  20.07$  12.92$
  Q  0.6645  12.83$  21$  11.69$
  Q  -1.3290  12.5$  20.66$  12.41$
  Q  0.6645  20.96$  16.21$  12.89$
  Q  0.6645  19.54$  16.5$  12.92$
  Q  -1.3290  20.16$  16$  12.78$
  Q  0.6645  7.71$  5.19$  3.97$
  Q  0.6645  7.77$  5.87$  5.18$
  Q  -1.3290  7.58$  5.84$  4.39$
  Q  0.6645  4.45$  14.4$  13.26$
  Q  0.6645  3.41$  14.64$  14.4$
  Q  -1.3290  3.72$  14.69$  13.6$
  Q  0.6645  11.13$  3.2$  6.08$
  Q  0.6645  11.9$  2.3$  7.05$
  Q  -1.3290  11.67$  3.03$  6.68$
  Q  0.6645  5.59$  5.77$  16.92$
  Q  0.6645  6.95$  5.88$  17.57$
  Q  -1.3290  6.42$  5.59$  17.01$
  Q  0.6645  18.06$  11.62$  21$
  Q  0.6645  17.14$  11.74$  19.69$
  Q  -1.3290  17.72$  11.39$  20.21$
  Q  0.6645  7.49$  2.93$  11.7$
  Q  0.6645  8.52$  2.92$  10.51$
  Q  -1.3290  7.81$  3.1$  10.93$
  Q  0.6645  4.91$  7.68$  10.43$
  Q  0.6645  3.54$  7.3$  9.75$
  Q  -1.3290  4.21$  7.82$  9.97$
  Q  0.6645  10.17$  0.52$  9.55$
  Q  0.6645  9.65$  1.01$  10.87$
  Q  -1.3290  9.57$  0.76$  10.08$
  Q  0.6645  9.28$  6.41$  20.83$
  Q  0.6645  10.34$  7.12$  20.12$
  Q  -1.3290  9.94$  6.87$  20.82$
  Q  0.6645  20.41$  11.03$  15.95$
  Q  0.6645  21.38$  9.98$  15.71$
  Q  -1.3290  21.1$  10.76$  15.63$
  Q  0.6645  17.97$  3.12$  13.58$
  Q  0.6645  19.02$  3.53$  12.59$
  Q  -1.3290  18.63$  3.54$  13.34$
  Q  0.6645  18.72$  7.72$  9.72$
  Q  0.6645  18.81$  9.19$  9.79$
  Q  -1.3290  18.4$  8.49$  9.8$
  Q  0.6645  18.38$  19.56$  10.42$
  Q  0.6645  18.43$  18.15$  9.88$
  Q  -1.3290  18.32$  18.73$  10.5$
  Q  0.6645  2.37$  16.75$  8.4$
  Q  0.6645  3.08$  18.1$  8.4$
  Q  -1.3290  2.72$  17.41$  8.74$
  Q  0.6645  1.41$  12.11$  15.73$
  Q  0.6645  0.69$  13.3$  15.6$
  Q  -1.3290  1.33$  12.87$  15.44$
  Q  0.6645  1.79$  14.31$  12.4$
  Q  0.6645  0.89$  13.12$  12.05$
  Q  -1.3290  1.33$  13.82$  11.9$
  Q  0.6645  15.87$  4.12$  6.8$
  Q  0.6645  15.3$  2.71$  6.52$
  Q  -1.3290  15.41$  3.53$  6.4$
  Q  0.6645  15.67$  9.59$  19.39$
  Q  0.6645  15.48$  8.76$  20.75$
  Q  -1.3290  15.39$  9.42$  20.19$
  Q  0.6645  20.2$  8.58$  5.86$
  Q  0.6645  18.68$  8.27$  6.12$
  Q  -1.3290  19.45$  8.63$  6.3$
  Q  0.6645  4.93$  0.95$  9.63$
  Q  0.6645  6.16$  2.05$  9.98$
  Q  -1.3290  5.58$  1.55$  9.52$
  Q  0.6645  3.31$  6.92$  12.57$
  Q  0.6645  3.13$  5.51$  12.42$
  Q  -1.3290  3.58$  6.17$  12.54$
  Q  0.6645  17.29$  13.31$  8.89$
  Q  0.6645  18.68$  13.88$  8.79$
  Q  -1.3290  17.84$  13.94$  8.82$
  Q  0.6645  15.78$  11.3$  4.33$
  Q  0.6645  16.75$  12.27$  5.08$
  Q  -1.3290  16.46$  11.49$  4.8$
  Q  0.6645  2.62$  14.4$  8.92$
  Q  0.6645  2.66$  13.89$  10.28$
  Q  -1.3290  2.95$  14$  9.53$
  Q  0.6645  8.86$  20.8$  10.33$
  Q  0.6645  8.01$  19.73$  9.76$
  Q  -1.3290  8.63$  20.01$  10.2$
  Q  0.6645  15.69$  1.93$  14.01$
  Q  0.6645  16.55$  2.79$  15.04$
  Q  -1.3290  16.36$  2.17$  14.47$
  Q  0.6645  18.49$  18.66$  12.96$
  Q  0.6645  18.41$  18.5$  14.44$
  Q  -1.3290  18.43$  18.22$  13.65$
  Q  0.6645  2.75$  9.24$  12.93$
  Q  0.6645  1.63$  8.71$  12.22$
  Q  -1.3290  2.22$  8.65$  12.76$
  Q  0.6645  0.64$  5.29$  5.04$
  Q  0.6645  1.76$  6.2$  5.7$
  Q  -1.3290  1.45$  5.52$  5.29$
  Q  0.6645  8.02$  16.83$  6.17$
  Q  0.6645  6.86$  17.61$  5.56$
  Q  -1.3290  7.46$  17.46$  6.12$
  Q  0.6645  7.93$  18.28$  15.18$
  Q  0.6645  8.48$  18.37$  16.69$
  Q  -1.3290  8.23$  17.98$  15.93$
  Q  0.6645  14.28$  2.91$  11.12$
  Q  0.6645  15.13$  3.4$  12.28$
  Q  -1.3290  15$  2.99$  11.58$
  Q  0.6645  3.71$  15.07$  16.44$
  Q  0.6645  2.44$  14.36$  15.96$
  Q  -1.3290  2.91$  15.05$  16.14$
  Q  0.6645  10.14$  15.58$  19.09$
  Q  0.6645  10.78$  15.1$  20.48$
  Q  -1.3290  10.51$  15.7$  19.89$
  Q  0.6645  8.95$  18.53$  6.15$
  Q  0.6645  9.77$  19.89$  6.11$
  Q  -1.3290  9.64$  19.08$  6.04$
  Q  0.6645  14.84$  17.45$  17.73$
  Q  0.6645  15.34$  17.63$  19.12$
  Q  -1.3290  15.35$  17.78$  18.31$
  Q  0.6645  7.55$  10.87$  17.52$
  Q  0.6645  8.01$  9.41$  17.91$
  Q  -1.3290  7.65$  10.19$  18.03$
  Q  0.6645  13.64$  20.1$  9.24$
  Q  0.6645  14.61$  21.07$  9.97$
  Q  -1.3290  13.83$  20.79$  9.7$
  Q  0.6645  16.3$  6.9$  16.07$
  Q  0.6645  16.32$  7.95$  14.8$
  Q  -1.3290  16.54$  7.25$  15.29$
  Q  0.6645  16.93$  6.3$  8.24$
  Q  0.6645  17.62$  5.79$  7.09$
  Q  -1.3290  17.25$  5.69$  7.84$
  Q  0.6645  9.94$  3.07$  7.82$
  Q  0.6645  8.5$  2.63$  8.09$
  Q  -1.3290  9.14$  3.18$  8.03$
  Q  0.6645  4.82$  15.96$  8.24$
  Q  0.6645  5.89$  14.83$  7.94$
  Q  -1.3290  5.24$  15.38$  7.77$
  Q  0.6645  3.25$  17.75$  15.18$
  Q  0.6645  3.31$  16.69$  14.1$
  Q  -1.3290  3.22$  17.46$  14.39$
  Q  0.6645  9.81$  6.52$  5.25$
  Q  0.6645  11.28$  6.67$  4.77$
  Q  -1.3290  10.63$  6.72$  5.33$
  Q  0.6645  18.71$  17.15$  5.37$
  Q  0.6645  17.31$  16.36$  5.31$
  Q  -1.3290  18.05$  16.66$  5.02$
  Q  0.6645  4.32$  18.78$  12.79$
  Q  0.6645  5.08$  18.73$  11.48$
  Q  -1.3290  4.73$  19.12$  12.15$
  Q  0.6645  18.76$  6.43$  15.74$
  Q  0.6645  18.91$  5.79$  14.45$
  Q  -1.3290  19.21$  6.18$  15.07$
  Q  0.6645  7.64$  9.34$  7.39$
  Q  0.6645  6.83$  9.28$  6.12$
  Q  -1.3290  7.44$  9.58$  6.61$
  Q  0.6645  21.12$  13.25$  17.61$
  Q  0.6645  20.84$  14.34$  16.49$
  Q  -1.3290  21.3$  13.94$  17.11$
  Q  0.6645  3.89$  10.71$  16.76$
  Q  0.6645  4.24$  10.57$  15.2$
  Q  -1.3290  4.39$  10.58$  16.06$
  Q  0.6645  15.51$  14.88$  16.44$
  Q  0.6645  14.34$  15.04$  17.4$
  Q  -1.3290  14.68$  14.9$  16.64$
  Q  0.6645  13.06$  17.69$  13.84$
  Q  0.6645  13.9$  18.12$  12.62$
  Q  -1.3290  13.4$  18.26$  13.27$
  Q  0.6645  11.99$  3.46$  10.43$
  Q  0.6645  12.14$  2.2$  9.69$
  Q  -1.3290  12.41$  2.85$  10.09$
  Q  0.6645  14.63$  21.56$  14.21$
  Q  0.6645  14.95$  20.03$  13.93$
  Q  -1.3290  14.79$  20.72$  14.41$
  Q  0.6645  17.46$  4.18$  9.14$
  Q  0.6645  16.71$  3.19$  10.15$
  Q  -1.3290  17.33$  3.46$  9.61$
  Q  0.6645  20.46$  6.5$  10.77$
  Q  0.6645  20.71$  7.21$  12.21$
  Q  -1.3290  20.53$  6.57$  11.63$
  Q  0.6645  12.13$  4.54$  4.32$
  Q  0.6645  13.29$  4.1$  5.18$
  Q  -1.3290  12.92$  4.24$  4.44$
  Q  0.6645  1.97$  11.62$  9.21$
  Q  0.6645  1.75$  10.93$  7.84$
  Q  -1.3290  1.6$  11.08$  8.69$
  Q  0.6645  16.68$  9.53$  5.32$
  Q  0.6645  16.19$  8.62$  6.45$
  Q  -1.3290  16.43$  8.81$  5.66$
  Q  0.6645  19.46$  9.02$  13.52$
  Q  0.6645  18.13$  8.33$  13.55$
  Q  -1.3290  18.65$  8.98$  13.71$
  Q  0.6645  19.73$  14.14$  11.86$
  Q  0.6645  18.79$  12.87$  12.14$
  Q  -1.3290  19.52$  13.3$  11.94$
  Q  0.6645  7.21$  2.63$  14.22$
  Q  0.6645  6.68$  1.53$  13.26$
  Q  -1.3290  7.3$  2.01$  13.64$
  Q  0.6645  8.71$  10$  3.28$
  Q  0.6645  8.63$  9.25$  4.51$
  Q  -1.3290  8.82$  9.32$  3.73$
  Q  0.6645  12.91$  12.73$  17.88$
  Q  0.6645  13.07$  12.45$  19.3$
  Q  -1.3290  13.25$  12.85$  18.6$
  Q  0.6645  10.13$  18.82$  10.77$
  Q  0.6645  11.15$  18.63$  11.87$
  Q  -1.3290  10.66$  18.37$  11.27$
  Q  0.6645  12.79$  18.22$  10.01$
  Q  0.6645  14.29$  18.26$  9.79$
  Q  -1.3290  13.48$  18.24$  9.55$
  Q  0.6645  0.47$  5.55$  12.31$
  Q  0.6645  1.13$  4.19$  12.73$
  Q  -1.3290  1.1$  5.04$  12.58$
  Q  0.6645  17.41$  7.69$  11.49$
  Q  0.6645  18.15$  6.6$  12.01$
  Q  -1.3290  17.58$  7.16$  12.08$
  Q  0.6645  17.3$  11.03$  6.57$
  Q  0.6645  18.3$  10.01$  6.98$
  Q  -1.3290  17.81$  10.68$  7.12$
  Q  0.6645  13.94$  13.07$  4.56$
  Q  0.6645  12.77$  12.32$  3.82$
  Q  -1.3290  13.36$  12.48$  4.41$
  Q  0.6645  17.91$  12.02$  16.28$
  Q  0.6645  16.98$  12.9$  17.02$
  Q  -1.3290  17.38$  12.68$  16.36$
  Q  0.6645  20.55$  14.25$  7.14$
  Q  0.6645  20.52$  14.37$  5.53$
  Q  -1.3290  20.47$  14.66$  6.35$
  Q  0.6645  11.12$  3.06$  16.24$
  Q  0.6645  9.52$  2.67$  16.09$
  Q  -1.3290  10.22$  3.15$  16.26$
  Q  0.6645  17.07$  15.56$  7.55$
  Q  0.6645  15.56$  15.99$  7.05$
  Q  -1.3290  16.45$  16.02$  7.13$
  Q  0.6645  9.54$  16.34$  16.45$
  Q  0.6645  10.44$  15.11$  16.43$
  Q  -1.3290  9.99$  15.71$  16.81$
  Q  0.6645  10.28$  16.35$  11.32$
  Q  0.6645  8.88$  15.76$  11.67$
  Q  -1.3290  9.72$  15.75$  11.54$
  Q  0.6645  11.88$  10.19$  19.57$
  Q  0.6645  13.34$  9.58$  19.63$
  Q  -1.3290  12.48$  9.58$  19.56$
  Q  0.6645  5.27$  16.24$  17.89$
  Q  0.6645  4.42$  15.08$  18.5$
  Q  -1.3290  4.86$  15.47$  17.91$
  Q  0.6645  6.81$  18.98$  7.75$
  Q  0.6645  6.04$  19.48$  8.92$
  Q  -1.3290  6.65$  19.54$  8.36$
  Q  0.6645  11.72$  15.97$  4.09$
  Q  0.6645  11.73$  16.91$  2.88$
  Q  -1.3290  11.77$  16.17$  3.28$
  Q  0.6645  10.98$  20.3$  15.39$
  Q  0.6645  11.08$  20.76$  13.94$
  Q  -1.3290  10.66$  20.47$  14.63$
  Q  0.6645  17.62$  3.93$  17.13$
  Q  0.6645  16.16$  4.15$  16.98$
  Q  -1.3290  16.86$  3.72$  16.89$
  Q  0.6645  3.32$  8.54$  2.38$
  Q  0.6645  4.38$  9.53$  2.28$
  Q  -1.3290  3.85$  9$  1.94$
  Q  0.6645  16.07$  14.54$  11.64$
  Q  0.6645  16.96$  15.05$  10.49$
  Q  -1.3290  16.31$  15.09$  11.07$
  Q  0.6645  9.84$  11.75$  6.6$
  Q  0.6645  8.53$  11.13$  6.56$
  Q  -1.3290  9.04$  11.74$  6.44$
  Q  0.6645  18.19$  5.87$  4.74$
  Q  0.6645  17.31$  6.98$  5.29$
  Q  -1.3290  17.91$  6.39$  5.32$
  Q  0.6645  4.55$  10.67$  7.76$
  Q  0.6645  4.58$  12.07$  8.25$
  Q  -1.3290  4.43$  11.5$  7.68$
  Q  0.6645  20.86$  15.93$  9.96$
  Q  0.6645  21.87$  14.79$  10.44$
  Q  -1.3290  21.36$  15.2$  9.88$
  Q  0.6645  7.78$  11.07$  0.19$
  Q  0.6645  7.79$  9.71$  0.79$
  Q  -1.3290  7.65$  10.54$  0.82$
  Q  0.6645  2.62$  6.15$  15.92$
  Q  0.6645  2.05$  5.74$  14.59$
  Q  -1.3290  2.07$  5.8$  15.42$
  Q  0.6645  4.57$  17.5$  9.68$
  Q  0.6645  6.11$  17.36$  10.03$
  Q  -1.3290  5.39$  17.74$  9.74$
  Q  0.6645  8.31$  14.4$  18.38$
  Q  0.6645  6.83$  14.87$  18.4$
  Q  -1.3290  7.47$  14.34$  18.44$
  Q  0.6645  5.88$  3.16$  5.81$
  Q  0.6645  6.64$  1.88$  5.51$
  Q  -1.3290  6.43$  2.68$  5.43$
  Q  0.6645  18.44$  9.91$  15.36$
  Q  0.6645  18.73$  9.9$  16.95$
  Q  -1.3290  18.6$  10.26$  16.17$
  Q  0.6645  4.92$  11.15$  10.69$
  Q  0.6645  3.97$  9.86$  10.58$
  Q  -1.3290  4.27$  10.64$  10.86$
  Q  0.6645  7.23$  12.73$  17.13$
  Q  0.6645  6.58$  11.85$  16.04$
  Q  -1.3290  7.24$  12.19$  16.46$
*
