! NoMOPrint PrintBasis #MINIPRINT SMALLPRINT LARGEPRINT
! ALLPOP XYZFILE
#! BP86 3-21G   TightSCF
! ENGRAD
! B3LYP NormalPNO PModel #DecontractAux
#! VerySlowConv 
 %maxcore 5000
 %scf  maxiter   500  end 

%pal
    nprocs 32
end

%basis
    NewGTO O    # New basis for oxygen
        "aug-cc-pVTZ"
    end
    NewGTO C    # New basis for carbon
        "aug-cc-pVTZ"
    end
    NewGTO H    # New basis for hydrogen
        "cc-pVTZ"
    end
end

* xyz 0   1
  C  10.14  12.29  9.62  #1
  H  10.95  12.68  9  #2
  H  10.01  12.87  10.51  #3
  C  10.51  10.86  10.1  #4
  H  9.7  10.54  10.65  #5
  H  10.48  10.24  9.2  #6
  C  11.84  10.69  10.85  #7
  H  12.24  11.73  11.09  #8
  H  12.58  10.21  10.22  #9
  C  11.7  9.95  12.12  #10
  H  11.71  8.85  11.89  #11
  H  10.77  10.3  12.6  #12
  O  12.8  10.27  13  #13
  H  12.39  10.4  13.83  #14
  O  8.91  12.26  8.79  #15
  H  9.07  11.9  7.88  #16
  O  9.2  14.26  5.07  #17
  H  9.54  14.22  4.18  #18
  H  9.52  13.48  5.49  #19
  O  9.77  11.6  6.22  #20
  H  10.45  10.99  6.42  #21
  H  9.15  11.14  5.64  #22
  O  14.31  7.96  14.88  #23
  H  13.48  8.33  15.04  #24
  H  14.13  7.45  14.08  #25
  O  12.59  13.68  6.58  #26
  H  12.87  14.35  7.26  #27
  H  11.59  13.74  6.74  #28
  O  8.32  15.19  9.48  #29
  H  8.12  14.22  9.35  #30
  H  7.44  15.56  9.62  #31
  O  9.56  8.66  7.47  #32
  H  10.32  8.99  6.95  #33
  H  9.81  8.42  8.38  #34
  O  6.85  14.54  6.64  #35
  H  7.66  14.49  6.12  #36
  H  7.07  15.08  7.42  #37
  O  14.28  14.55  8.46  #38
  H  14.02  14.81  9.34  #39
  H  14.87  15.24  8.04  #40
  O  12.24  6.13  11.42  #41
  H  13.04  6.3  10.82  #42
  H  11.49  6.54  10.97  #43
  O  7.23  10.01  7.08  #44
  H  6.92  9.68  6.22  #45
  H  8.12  9.55  7.26  #46
  O  6.55  11.71  10.69  #47
  H  6.03  11.92  9.87  #48
  H  7.44  11.58  10.39  #49
  O  10.31  15.26  7.57  #50
  H  9.68  15.43  8.22  #51
  H  10.84  16.04  7.68  #52
  O  15.05  11.69  14.01  #53
  H  14.79  11.74  14.95  #54
  H  14.4  11.26  13.46  #55
  O  10.36  13.66  13.27  #56
  H  11.21  13.77  13.68  #57
  H  10.28  14.4  12.59  #58
  O  9.95  17.1  5.45  #59
  H  9.97  16.21  5.92  #60
  H  9.7  17.8  6.15  #61
  O  5.96  16.33  9.08  #62
  H  5.04  16.22  8.73  #63
  H  6.32  17.11  8.64  #64
  O  12.37  11.05  7.53  #65
  H  12.58  11.94  7.25  #66
  H  13.03  10.45  7.07  #67
  O  10.86  13.84  2.62  #68
  H  10.52  14.02  1.65  #69
  H  11.79  14  2.79  #70
  O  13.42  14.03  3.93  #71
  H  13.1  13.81  4.86  #72
  H  14.3  13.72  3.84  #73
  O  9.63  15.97  11.73  #74
  H  9.3  15.77  10.86  #75
  H  10.53  16.31  11.72  #76
  O  10.89  9.13  5.14  #77
  H  11.02  8.19  4.93  #78
  H  11.1  9.67  4.34  #79
  O  13.65  14.64  11.2  #80
  H  13.11  15.05  11.84  #81
  H  13.82  13.75  11.56  #82
  O  16.89  6.4  13.79  #83
  H  17.71  6.48  14.28  #84
  H  16.44  7.25  13.98  #85
  O  11.43  7.52  15.52  #86
  H  11.3  6.96  16.26  #87
  H  11.68  6.92  14.83  #88
  O  5.51  12.11  8  #89
  H  6.3  11.64  7.79  #90
  H  5.76  12.9  7.47  #91
  O  11.76  10.81  15.54  #92
  H  11.19  11.58  15.8  #93
  H  12.01  10.39  16.39  #94
  O  16.67  8.8  16.08  #95
  H  15.88  8.57  15.62  #96
  H  17.18  8.01  16.24  #97
  O  13.49  5.51  13.65  #98
  H  14.25  4.88  13.64  #99
  H  13.21  5.77  12.76  #100
  Q  0.6645  5.33$  14.67$  16.55$
  Q  0.6645  5.94$  14.78$  15.2$
  Q  -1.3290  5.39$  14.48$  15.74$
  Q  0.6645  15.82$  9.87$  3.27$
  Q  0.6645  16.55$  9.13$  4.3$
  Q  -1.3290  16.51$  9.54$  3.61$
  Q  0.6645  13.91$  5.56$  16.9$
  Q  0.6645  12.75$  6.03$  17.74$
  Q  -1.3290  13.29$  5.47$  17.45$
  Q  0.6645  21.21$  13.23$  6.91$
  Q  0.6645  20.11$  13.11$  7.85$
  Q  -1.3290  20.44$  13.08$  7.1$
  Q  0.6645  12.84$  9.8$  18.86$
  Q  0.6645  13.67$  9.89$  17.62$
  Q  -1.3290  12.98$  9.65$  18.05$
  Q  0.6645  3.39$  11.5$  11.2$
  Q  0.6645  4.77$  10.76$  10.89$
  Q  -1.3290  3.95$  10.85$  11.05$
  Q  0.6645  10.14$  19.22$  8.18$
  Q  0.6645  10.05$  19.77$  6.69$
  Q  -1.3290  9.78$  19.35$  7.4$
  Q  0.6645  10.28$  18.78$  10.2$
  Q  0.6645  11.79$  18.87$  10.3$
  Q  -1.3290  11.06$  18.77$  9.88$
  Q  0.6645  3.71$  12.58$  1.35$
  Q  0.6645  2.67$  12.12$  0.35$
  Q  -1.3290  3.29$  12.59$  0.63$
  Q  0.6645  12.97$  6.83$  3.74$
  Q  0.6645  11.72$  6.02$  4.18$
  Q  -1.3290  12.33$  6.62$  4.25$
  Q  0.6645  4.78$  16.34$  2.56$
  Q  0.6645  6.07$  15.88$  3.37$
  Q  -1.3290  5.44$  15.87$  2.79$
  Q  0.6645  9.97$  4.66$  3.36$
  Q  0.6645  9.67$  5.57$  4.56$
  Q  -1.3290  10.12$  5.02$  4.09$
  Q  0.6645  2.72$  13.69$  10.34$
  Q  0.6645  3.15$  14.89$  11.17$
  Q  -1.3290  3.17$  14.38$  10.5$
  Q  0.6645  5.71$  19.29$  8.62$
  Q  0.6645  5.61$  20.34$  9.68$
  Q  -1.3290  5.36$  19.65$  9.27$
  Q  0.6645  15.04$  7.98$  10.25$
  Q  0.6645  14.26$  7.17$  9.12$
  Q  -1.3290  14.63$  7.31$  9.88$
  Q  0.6645  3.97$  16.87$  6.75$
  Q  0.6645  4.94$  16.43$  5.75$
  Q  -1.3290  4.55$  17$  6.17$
  Q  0.6645  11.82$  19.19$  3.57$
  Q  0.6645  10.69$  18.81$  2.67$
  Q  -1.3290  11.11$  19.3$  3.16$
  Q  0.6645  21.51$  11.42$  13.21$
  Q  0.6645  20.36$  12.26$  12.65$
  Q  -1.3290  21.18$  12.09$  12.81$
  Q  0.6645  6.48$  16.37$  12.31$
  Q  0.6645  6.02$  17.2$  11.07$
  Q  -1.3290  6.37$  17.09$  11.85$
  Q  0.6645  8.74$  12.99$  13.77$
  Q  0.6645  7.78$  11.82$  13.84$
  Q  -1.3290  8.02$  12.61$  14$
  Q  0.6645  18.22$  14.16$  14.27$
  Q  0.6645  19.54$  13.7$  14.83$
  Q  -1.3290  18.8$  13.61$  14.42$
  Q  0.6645  17.84$  16.59$  4.33$
  Q  0.6645  16.33$  16.58$  4.07$
  Q  -1.3290  17.15$  16.64$  3.84$
  Q  0.6645  2.46$  15.41$  14.28$
  Q  0.6645  3.24$  14.71$  15.24$
  Q  -1.3290  2.57$  15.09$  15.02$
  Q  0.6645  7.75$  17.04$  14.37$
  Q  0.6645  8.3$  15.96$  13.35$
  Q  -1.3290  8.16$  16.31$  14.12$
  Q  0.6645  8.43$  7.97$  2.89$
  Q  0.6645  7.51$  6.81$  3.02$
  Q  -1.3290  7.89$  7.49$  3.3$
  Q  0.6645  8.63$  10.98$  17.11$
  Q  0.6645  7.11$  10.63$  16.99$
  Q  -1.3290  7.93$  10.5$  17.19$
  Q  0.6645  21.17$  9.91$  7.63$
  Q  0.6645  20.51$  8.71$  8.27$
  Q  -1.3290  21.07$  9.3$  8.17$
  Q  0.6645  9.22$  5.29$  19.45$
  Q  0.6645  8.57$  6.22$  18.37$
  Q  -1.3290  8.99$  6.02$  19.1$
  Q  0.6645  7.52$  17.89$  4.21$
  Q  0.6645  8.07$  16.62$  4.94$
  Q  -1.3290  7.55$  17.07$  4.43$
  Q  0.6645  12.97$  9.86$  21.29$
  Q  0.6645  11.72$  9.06$  21.7$
  Q  -1.3290  12.42$  9.2$  21.29$
  Q  0.6645  19.46$  5.39$  9.12$
  Q  0.6645  20.61$  4.92$  8.23$
  Q  -1.3290  20.2$  5.42$  8.79$
  Q  0.6645  6.84$  5.91$  16.48$
  Q  0.6645  7.73$  4.65$  16.2$
  Q  -1.3290  7.44$  5.32$  16.61$
  Q  0.6645  5.66$  13.54$  2.16$
  Q  0.6645  5.08$  12.75$  3.38$
  Q  -1.3290  5.33$  12.85$  2.57$
  Q  0.6645  0.33$  9.57$  10.01$
  Q  0.6645  -0.4$  10.43$  11.15$
  Q  -1.3290  0.2$  9.9$  10.77$
  Q  0.6645  12.11$  10.57$  2.39$
  Q  0.6645  11.05$  11.76$  2.56$
  Q  -1.3290  11.39$  10.96$  2.67$
  Q  0.6645  12.97$  13.36$  15.51$
  Q  0.6645  13.9$  13.38$  14.32$
  Q  -1.3290  13.32$  13.69$  14.83$
  Q  0.6645  15.24$  16.11$  12.04$
  Q  0.6645  16.3$  17.26$  11.95$
  Q  -1.3290  15.69$  16.8$  12.28$
  Q  0.6645  17.77$  5.78$  16.8$
  Q  0.6645  18.42$  6.87$  17.67$
  Q  -1.3290  18.06$  6.56$  16.98$
  Q  0.6645  14.66$  11.33$  8.2$
  Q  0.6645  14.94$  12.81$  8.32$
  Q  -1.3290  15.14$  12.03$  8.16$
  Q  0.6645  15.36$  19.14$  8.03$
  Q  0.6645  15.85$  19.64$  9.36$
  Q  -1.3290  15.71$  19.04$  8.78$
  Q  0.6645  11.84$  16.6$  20.37$
  Q  0.6645  12.37$  16.35$  21.77$
  Q  -1.3290  12.16$  16.13$  20.99$
  Q  0.6645  13.64$  20.34$  6.99$
  Q  0.6645  15.09$  20.65$  6.85$
  Q  -1.3290  14.44$  20.2$  6.74$
  Q  0.6645  12.65$  17.39$  12.29$
  Q  0.6645  11.77$  16.91$  13.48$
  Q  -1.3290  12.2$  16.82$  12.75$
  Q  0.6645  8.36$  9$  20.59$
  Q  0.6645  9.27$  7.65$  20.24$
  Q  -1.3290  9.05$  8.48$  20.5$
  Q  0.6645  15.35$  4.13$  15.39$
  Q  0.6645  15.65$  5.63$  15.39$
  Q  -1.3290  15.49$  4.89$  15.73$
  Q  0.6645  10.33$  19.03$  15.84$
  Q  0.6645  9.12$  19.94$  16.24$
  Q  -1.3290  9.95$  19.7$  16.2$
  Q  0.6645  10.24$  16.54$  14.6$
  Q  0.6645  11.52$  16.58$  15.58$
  Q  -1.3290  10.89$  16.88$  15.07$
  Q  0.6645  16.88$  16.85$  6.83$
  Q  0.6645  15.95$  17.08$  8.08$
  Q  -1.3290  16.28$  16.66$  7.44$
  Q  0.6645  11.58$  21.38$  7.31$
  Q  0.6645  11.64$  21.58$  8.77$
  Q  -1.3290  11.98$  21.46$  8.02$
  Q  0.6645  10.85$  4.22$  10.61$
  Q  0.6645  10.87$  3.49$  11.96$
  Q  -1.3290  10.97$  3.56$  11.1$
  Q  0.6645  18.48$  9.53$  20.43$
  Q  0.6645  17.92$  9.89$  21.79$
  Q  -1.3290  17.92$  9.88$  20.96$
  Q  0.6645  8.86$  7.6$  10.54$
  Q  0.6645  9.39$  6.58$  9.43$
  Q  -1.3290  9.42$  7.15$  10.08$
  Q  0.6645  4.42$  5.63$  9.4$
  Q  0.6645  3.05$  6.53$  9.02$
  Q  -1.3290  3.91$  6.26$  9.07$
  Q  0.6645  10.11$  12.42$  20.73$
  Q  0.6645  10.16$  10.91$  20.47$
  Q  -1.3290  10.31$  11.71$  20.3$
  Q  0.6645  18.57$  11.15$  11.94$
  Q  0.6645  18.94$  10.58$  10.57$
  Q  -1.3290  19.01$  11.1$  11.24$
  Q  0.6645  19.2$  6.58$  11.77$
  Q  0.6645  18.12$  6.06$  10.81$
  Q  -1.3290  18.78$  6.53$  11.02$
  Q  0.6645  12.82$  7.24$  1.28$
  Q  0.6645  14.26$  6.81$  1.85$
  Q  -1.3290  13.47$  7.2$  1.85$
  Q  0.6645  6.79$  14.15$  13.12$
  Q  0.6645  5.29$  14.06$  12.7$
  Q  -1.3290  6.03$  14.46$  12.83$
  Q  0.6645  16.8$  10.03$  12.27$
  Q  0.6645  16.49$  10.29$  13.63$
  Q  -1.3290  17.01$  10.07$  13.04$
  Q  0.6645  16.43$  13.22$  10.81$
  Q  0.6645  16.62$  12.52$  12.13$
  Q  -1.3290  16.18$  12.84$  11.52$
  Q  0.6645  11.81$  7.97$  18.34$
  Q  0.6645  10.64$  6.89$  18.7$
  Q  -1.3290  11.42$  7.19$  18.43$
  Q  0.6645  19.04$  14.38$  6.16$
  Q  0.6645  19.72$  14.98$  4.93$
  Q  -1.3290  19.06$  14.82$  5.44$
  Q  0.6645  7.74$  6.26$  6.54$
  Q  0.6645  8.77$  7.42$  6.44$
  Q  -1.3290  8.46$  6.63$  6.27$
  Q  0.6645  10.08$  14.9$  -0.59$
  Q  0.6645  8.73$  14.63$  0.14$
  Q  -1.3290  9.57$  14.53$  -0.01$
  Q  0.6645  13.74$  6.08$  5.38$
  Q  0.6645  14.87$  5.02$  5.49$
  Q  -1.3290  14.4$  5.68$  5.75$
  Q  0.6645  7.88$  0.18$  13.9$
  Q  0.6645  7.73$  0.58$  12.39$
  Q  -1.3290  7.97$  0.68$  13.23$
  Q  0.6645  15.32$  2.04$  15.56$
  Q  0.6645  16.57$  1.39$  14.86$
  Q  -1.3290  16.1$  2.02$  15.21$
  Q  0.6645  16.28$  13.28$  4.38$
  Q  0.6645  17.3$  14.35$  3.92$
  Q  -1.3290  16.58$  13.85$  3.85$
  Q  0.6645  14.48$  10.22$  1.46$
  Q  0.6645  13.97$  9.15$  2.27$
  Q  -1.3290  14.19$  9.93$  2.14$
  Q  0.6645  15.21$  7.92$  19.55$
  Q  0.6645  13.93$  7.31$  20.1$
  Q  -1.3290  14.73$  7.33$  19.85$
  Q  0.6645  1.01$  12.57$  11.35$
  Q  0.6645  1.39$  11.51$  10.22$
  Q  -1.3290  1.39$  12.29$  10.63$
  Q  0.6645  6.77$  6.64$  19.78$
  Q  0.6645  5.8$  7.85$  19.64$
  Q  -1.3290  6.27$  7.27$  20.06$
  Q  0.6645  9.97$  20.51$  11.79$
  Q  0.6645  9.96$  21.73$  12.76$
  Q  -1.3290  10.25$  21.24$  12.12$
  Q  0.6645  2.41$  9.03$  7.56$
  Q  0.6645  1.15$  8.69$  6.76$
  Q  -1.3290  1.94$  8.57$  7.01$
  Q  0.6645  3.83$  18.54$  10.64$
  Q  0.6645  2.28$  17.91$  10.64$
  Q  -1.3290  3.06$  18.16$  10.96$
  Q  0.6645  13.82$  0.15$  12.65$
  Q  0.6645  12.67$  0.53$  11.68$
  Q  -1.3290  13.46$  0.32$  11.87$
  Q  0.6645  6.7$  1.84$  8.94$
  Q  0.6645  5.89$  2.75$  9.9$
  Q  -1.3290  6.11$  2$  9.5$
  Q  0.6645  16.05$  9.29$  17.98$
  Q  0.6645  16.9$  9.65$  19.23$
  Q  -1.3290  16.18$  9.49$  18.79$
  Q  0.6645  14.97$  15.18$  17.43$
  Q  0.6645  16.48$  15.36$  17.59$
  Q  -1.3290  15.69$  15.4$  17.84$
  Q  0.6645  13.16$  15.59$  15.96$
  Q  0.6645  13.65$  16.85$  15.2$
  Q  -1.3290  13.43$  16.4$  15.91$
  Q  0.6645  6.67$  7.62$  5.11$
  Q  0.6645  5.13$  7.45$  5.54$
  Q  -1.3290  5.92$  7.83$  5.47$
  Q  0.6645  12.52$  2.9$  14.7$
  Q  0.6645  12.28$  3.97$  13.73$
  Q  -1.3290  12.05$  3.32$  14.16$
  Q  0.6645  6.51$  9.83$  0.43$
  Q  0.6645  5.96$  10.97$  1.34$
  Q  -1.3290  6.07$  10.18$  1.06$
  Q  0.6645  19.27$  8.28$  15.63$
  Q  0.6645  18.44$  9.55$  15.34$
  Q  -1.3290  19.14$  9.11$  15.4$
  Q  0.6645  6.73$  6.34$  8.21$
  Q  0.6645  7.5$  5.07$  8.39$
  Q  -1.3290  6.93$  5.56$  8.03$
  Q  0.6645  12.57$  17.45$  6.88$
  Q  0.6645  11.72$  17.86$  8.11$
  Q  -1.3290  12.22$  17.37$  7.63$
  Q  0.6645  3.46$  12.03$  5.42$
  Q  0.6645  2.67$  13.29$  5.9$
  Q  -1.3290  2.87$  12.64$  5.35$
  Q  0.6645  9.66$  13.2$  17.39$
  Q  0.6645  10.38$  12.02$  18.33$
  Q  -1.3290  10.17$  12.46$  17.6$
  Q  0.6645  17.8$  12.39$  15.79$
  Q  0.6645  18.23$  11.46$  16.96$
  Q  -1.3290  17.85$  12.12$  16.62$
  Q  0.6645  3.87$  7.52$  15.79$
  Q  0.6645  4.96$  7.71$  16.92$
  Q  -1.3290  4.59$  7.33$  16.19$
  Q  0.6645  16.2$  4.68$  13.04$
  Q  0.6645  16.1$  3.21$  13.48$
  Q  -1.3290  15.82$  3.91$  13.11$
  Q  0.6645  15.59$  10.81$  10.17$
  Q  0.6645  16.66$  9.63$  10.09$
  Q  -1.3290  15.89$  10$  10.24$
  Q  0.6645  13.96$  17.56$  17.57$
  Q  0.6645  14.73$  17.67$  18.87$
  Q  -1.3290  14.4$  17.97$  18.13$
  Q  0.6645  3.88$  5.8$  6.46$
  Q  0.6645  3.12$  7.19$  6.19$
  Q  -1.3290  3.59$  6.51$  6$
  Q  0.6645  14.55$  11.14$  5.03$
  Q  0.6645  14.99$  11.88$  6.25$
  Q  -1.3290  14.93$  11.74$  5.45$
  Q  0.6645  9.93$  1.54$  4.17$
  Q  0.6645  10.47$  2.85$  5.02$
  Q  -1.3290  10.44$  2$  4.68$
  Q  0.6645  7.29$  19.1$  6.97$
  Q  0.6645  6.28$  17.96$  6.73$
  Q  -1.3290  6.81$  18.44$  7.2$
  Q  0.6645  3.98$  9.57$  12.88$
  Q  0.6645  5.34$  9.44$  13.51$
  Q  -1.3290  4.55$  9.23$  13.35$
  Q  0.6645  13.49$  5.43$  7.73$
  Q  0.6645  13.31$  4.96$  9.13$
  Q  -1.3290  13.14$  5.47$  8.48$
  Q  0.6645  10.44$  21.98$  5.61$
  Q  0.6645  11.03$  20.7$  5.03$
  Q  -1.3290  10.75$  21.21$  5.65$
  Q  0.6645  1.35$  15.32$  4.69$
  Q  0.6645  2.68$  14.5$  4.51$
  Q  -1.3290  2.19$  15.19$  4.6$
  Q  0.6645  6.77$  5.32$  12.95$
  Q  0.6645  7.71$  4.23$  13.01$
  Q  -1.3290  7.19$  4.71$  12.61$
  Q  0.6645  14.2$  12.26$  17.1$
  Q  0.6645  15.62$  11.83$  17.09$
  Q  -1.3290  14.78$  11.74$  16.93$
  Q  0.6645  1.14$  10.52$  5.71$
  Q  0.6645  -0.13$  9.94$  4.89$
  Q  -1.3290  0.31$  10.24$  5.58$
  Q  0.6645  10.3$  0.4$  10.26$
  Q  0.6645  10.57$  1.9$  9.99$
  Q  -1.3290  10.3$  1.12$  9.8$
  Q  0.6645  9.84$  3.54$  14.43$
  Q  0.6645  8.76$  2.61$  14.32$
  Q  -1.3290  9.06$  3.35$  14.43$
  Q  0.6645  13.36$  15.94$  1.9$
  Q  0.6645  13.27$  17.42$  1.73$
  Q  -1.3290  12.96$  16.67$  1.7$
  Q  0.6645  5.84$  7.05$  14.5$
  Q  0.6645  7.38$  6.87$  14.51$
  Q  -1.3290  6.61$  6.82$  14.21$
  Q  0.6645  14.26$  3.66$  10.98$
  Q  0.6645  12.82$  3.52$  10.49$
  Q  -1.3290  13.66$  3.47$  10.44$
  Q  0.6645  5.09$  4.75$  7.44$
  Q  0.6645  4.86$  3.51$  6.7$
  Q  -1.3290  4.61$  4.18$  7.08$
  Q  0.6645  8.16$  19.9$  11.13$
  Q  0.6645  8.19$  18.4$  11.49$
  Q  -1.3290  8.53$  19.13$  11.24$
  Q  0.6645  14.11$  12.19$  20.36$
  Q  0.6645  14.72$  10.86$  20.23$
  Q  -1.3290  14.17$  11.4$  20.52$
  Q  0.6645  5.43$  9.7$  18.26$
  Q  0.6645  4.11$  9.04$  18.45$
  Q  -1.3290  4.92$  9.07$  18.28$
  Q  0.6645  17.13$  8.09$  6.44$
  Q  0.6645  15.9$  7.01$  6.06$
  Q  -1.3290  16.34$  7.78$  6.16$
  Q  0.6645  19.33$  7.73$  13.39$
  Q  0.6645  20.43$  6.9$  14.04$
  Q  -1.3290  19.7$  7.03$  13.67$
  Q  0.6645  13.87$  19.13$  10.87$
  Q  0.6645  13.01$  20.08$  11.63$
  Q  -1.3290  13.28$  19.33$  11.43$
  Q  0.6645  0.02$  12.2$  3.47$
  Q  0.6645  1.52$  12.43$  3.48$
  Q  -1.3290  0.73$  12.58$  3.21$
  Q  0.6645  1.53$  10.69$  14.08$
  Q  0.6645  1.78$  11.59$  15.37$
  Q  -1.3290  1.97$  11.21$  14.63$
  Q  0.6645  5.32$  11$  15.53$
  Q  0.6645  4.89$  12.16$  16.4$
  Q  -1.3290  5.33$  11.46$  16.22$
  Q  0.6645  7.69$  9.34$  14.17$
  Q  0.6645  7.08$  9.8$  12.73$
  Q  -1.3290  7.27$  9.84$  13.59$
  Q  0.6645  14.83$  14.74$  19.85$
  Q  0.6645  13.52$  14.82$  20.76$
  Q  -1.3290  14.11$  14.47$  20.25$
  Q  0.6645  4.16$  6.59$  11.71$
  Q  0.6645  4.26$  7.39$  13.06$
  Q  -1.3290  4$  6.76$  12.52$
  Q  0.6645  14.92$  16.73$  5.82$
  Q  0.6645  14.66$  15.51$  4.97$
  Q  -1.3290  14.8$  16.31$  5.1$
  Q  0.6645  6.61$  15.21$  1.05$
  Q  0.6645  7.01$  15.3$  -0.48$
  Q  -1.3290  6.87$  14.93$  0.28$
  Q  0.6645  4.72$  9.88$  5.15$
  Q  0.6645  5.9$  10.64$  4.56$
  Q  -1.3290  5.16$  10.55$  5.01$
  Q  0.6645  15.43$  14.38$  0.73$
  Q  0.6645  15.61$  14.45$  2.24$
  Q  -1.3290  15.28$  14.67$  1.47$
  Q  0.6645  18.92$  4.03$  15.38$
  Q  0.6645  17.54$  3.55$  15.63$
  Q  -1.3290  18.26$  3.93$  15.86$
  Q  0.6645  10.06$  1.97$  16.4$
  Q  0.6645  9.76$  2.56$  17.78$
  Q  -1.3290  9.63$  2.06$  17.12$
  Q  0.6645  15.49$  5.58$  19.02$
  Q  0.6645  15.79$  4.63$  17.92$
  Q  -1.3290  15.87$  4.88$  18.7$
  Q  0.6645  18.5$  14.02$  17.15$
  Q  0.6645  18.79$  15.09$  18.34$
  Q  -1.3290  18.83$  14.73$  17.56$
  Q  0.6645  11.71$  17.47$  4.78$
  Q  0.6645  13.34$  17.47$  4.89$
  Q  -1.3290  12.52$  17.76$  4.98$
  Q  0.6645  14.42$  8.38$  6.09$
  Q  0.6645  12.99$  8.65$  5.62$
  Q  -1.3290  13.72$  8.83$  6.02$
  Q  0.6645  5.99$  18.28$  15.25$
  Q  0.6645  6.3$  18.34$  13.64$
  Q  -1.3290  6.48$  18.39$  14.53$
  Q  0.6645  18.57$  8.97$  8.85$
  Q  0.6645  18.42$  8.3$  10.24$
  Q  -1.3290  18.45$  8.96$  9.72$
  Q  0.6645  20.84$  9.51$  14.2$
  Q  0.6645  21.78$  9.14$  12.93$
  Q  -1.3290  21.55$  9.54$  13.68$
  Q  0.6645  10.78$  -0.32$  15.62$
  Q  0.6645  11.86$  0.49$  14.73$
  Q  -1.3290  11.3$  0.32$  15.38$
  Q  0.6645  8.21$  17.24$  16.23$
  Q  0.6645  8.11$  18.21$  17.44$
  Q  -1.3290  7.99$  17.49$  17$
  Q  0.6645  7.52$  10.55$  2.89$
  Q  0.6645  7.44$  12.02$  3.21$
  Q  -1.3290  7.49$  11.19$  3.4$
  Q  0.6645  3.62$  12.07$  13.93$
  Q  0.6645  4.89$  12.84$  14.49$
  Q  -1.3290  4.4$  12.43$  13.9$
  Q  0.6645  1.04$  13.98$  8.36$
  Q  0.6645  1.57$  14.95$  7.31$
  Q  -1.3290  1.19$  14.28$  7.56$
  Q  0.6645  15.29$  18.85$  15.04$
  Q  0.6645  14.81$  18.06$  13.65$
  Q  -1.3290  14.74$  18.61$  14.4$
  Q  0.6645  3.98$  10.91$  8.27$
  Q  0.6645  3.22$  10.16$  9.43$
  Q  -1.3290  3.43$  10.36$  8.61$
  Q  0.6645  8.03$  15$  16.24$
  Q  0.6645  8.36$  13.71$  15.61$
  Q  -1.3290  8.37$  14.25$  16.24$
  Q  0.6645  1.6$  15.86$  12.45$
  Q  0.6645  2.74$  16.9$  12.59$
  Q  -1.3290  2.38$  16.08$  12.64$
  Q  0.6645  18.22$  11.93$  6.56$
  Q  0.6645  16.91$  11.36$  5.84$
  Q  -1.3290  17.77$  11.46$  6.01$
  Q  0.6645  19.63$  12.91$  10.11$
  Q  0.6645  19.4$  14.43$  9.81$
  Q  -1.3290  19.84$  13.7$  9.83$
  Q  0.6645  6.03$  13.94$  18.98$
  Q  0.6645  7.17$  14.67$  18.14$
  Q  -1.3290  6.39$  14.5$  18.42$
  Q  0.6645  18.65$  9.89$  6.56$
  Q  0.6645  19.19$  8.44$  6.22$
  Q  -1.3290  18.83$  9.06$  6.7$
  Q  0.6645  13.01$  4.39$  19.23$
  Q  0.6645  13.03$  2.98$  20.05$
  Q  -1.3290  12.75$  3.8$  19.78$
  Q  0.6645  9.79$  5.74$  7.53$
  Q  0.6645  11.09$  5.23$  8.29$
  Q  -1.3290  10.24$  5.33$  8.18$
  Q  0.6645  4.8$  9.22$  2.65$
  Q  0.6645  4.64$  8.45$  3.83$
  Q  -1.3290  4.37$  8.77$  3.14$
  Q  0.6645  20.09$  9.82$  16.89$
  Q  0.6645  19.9$  9.85$  18.29$
  Q  -1.3290  20.28$  10.07$  17.65$
  Q  0.6645  10.02$  9.6$  1.98$
  Q  0.6645  9.31$  8.95$  0.67$
  Q  -1.3290  9.43$  9.16$  1.51$
  Q  0.6645  18.4$  3.85$  7.08$
  Q  0.6645  17.17$  3.52$  6.44$
  Q  -1.3290  17.61$  3.94$  7$
  Q  0.6645  3.19$  15.46$  8.94$
  Q  0.6645  2.56$  16.8$  8.56$
  Q  -1.3290  3$  16.11$  8.42$
  Q  0.6645  13.2$  1.36$  7.96$
  Q  0.6645  14.08$  2.51$  8.56$
  Q  -1.3290  13.82$  1.94$  7.97$
  Q  0.6645  5.38$  7.64$  8.62$
  Q  0.6645  6.41$  8.71$  8.13$
  Q  -1.3290  6.13$  8.06$  8.63$
  Q  0.6645  8.48$  9$  16.18$
  Q  0.6645  9.59$  8.14$  15.63$
  Q  -1.3290  8.79$  8.44$  15.67$
  Q  0.6645  11.72$  13.4$  17.81$
  Q  0.6645  12.91$  14.13$  18.56$
  Q  -1.3290  12.51$  13.76$  17.87$
  Q  0.6645  6.86$  8.56$  10.55$
  Q  0.6645  7.09$  7.49$  11.71$
  Q  -1.3290  7.19$  8.23$  11.27$
  Q  0.6645  18.06$  18.27$  10.45$
  Q  0.6645  18.32$  18.29$  12.05$
  Q  -1.3290  18.06$  17.99$  11.25$
  Q  0.6645  17.79$  15.82$  8.89$
  Q  0.6645  17.81$  16.11$  10.38$
  Q  -1.3290  17.88$  15.63$  9.69$
  Q  0.6645  9.82$  16.82$  3.41$
  Q  0.6645  10.68$  16.48$  2.18$
  Q  -1.3290  10.09$  16.87$  2.59$
  Q  0.6645  16.8$  4.97$  8.67$
  Q  0.6645  16.15$  5.8$  9.64$
  Q  -1.3290  16.65$  5.22$  9.46$
  Q  0.6645  17.31$  16.91$  15.11$
  Q  0.6645  17.01$  16.49$  13.75$
  Q  -1.3290  17.48$  16.48$  14.44$
  Q  0.6645  5.76$  4.57$  11.06$
  Q  0.6645  4.43$  3.93$  11.27$
  Q  -1.3290  5.04$  4.3$  10.79$
  Q  0.6645  12.87$  1.99$  16.73$
  Q  0.6645  13.38$  3.38$  16.79$
  Q  -1.3290  13.36$  2.59$  16.49$
  Q  0.6645  17.11$  3.23$  9.78$
  Q  0.6645  17.45$  2.68$  11.27$
  Q  -1.3290  17.34$  2.66$  10.42$
  Q  0.6645  6.46$  11.14$  20.22$
  Q  0.6645  7.49$  10.45$  19.28$
  Q  -1.3290  6.95$  10.5$  19.94$
  Q  0.6645  19.2$  12.82$  3.1$
  Q  0.6645  18.82$  11.73$  4.02$
  Q  -1.3290  19.31$  12.07$  3.46$
*
