! NoMOPrint PrintBasis #MINIPRINT SMALLPRINT LARGEPRINT
! ALLPOP XYZFILE
#! BP86 3-21G   TightSCF
! ENGRAD
! B3LYP NormalPNO PModel #DecontractAux
#! VerySlowConv 
 %maxcore 5000
 %scf  maxiter   500  end 

%pal
    nprocs 32
end

%basis
    NewGTO O    # New basis for oxygen
        "aug-cc-pVTZ"
    end
    NewGTO C    # New basis for carbon
        "aug-cc-pVTZ"
    end
    NewGTO H    # New basis for hydrogen
        "cc-pVTZ"
    end
end

* xyz 0   1
  C  10.33  11.77  12.85  #1
  H  9.8  12.46  12.12  #2
  H  10.32  12.28  13.79  #3
  C  11.74  11.32  12.31  #4
  H  12.51  12.11  12.31  #5
  H  12.17  10.64  13.07  #6
  C  11.68  10.56  10.98  #7
  H  11.22  9.62  11.28  #8
  H  12.64  10.19  10.59  #9
  C  10.88  11.23  9.88  #10
  H  11.34  12.15  9.71  #11
  H  9.82  11.39  10.11  #12
  O  10.9  10.53  8.58  #13
  H  11.83  10.58  8.24  #14
  O  9.43  10.66  12.98  #15
  H  9.74  10.28  13.84  #16
  O  8.09  8.11  12.17  #17
  H  8.19  7.6  11.32  #18
  H  8.49  8.99  12.09  #19
  O  13.73  9.92  7.38  #20
  H  13.99  10.82  7.23  #21
  H  13.59  9.48  6.51  #22
  O  8.75  10.37  16.37  #23
  H  8.75  10.93  17.22  #24
  H  8.37  10.99  15.78  #25
  O  9.7  14.86  13.65  #26
  H  9.39  14.95  12.73  #27
  H  10.65  14.83  13.67  #28
  O  12.42  12.81  15.9  #29
  H  11.88  13.12  16.61  #30
  H  12.23  11.9  15.67  #31
  O  10.76  7.69  13.46  #32
  H  9.96  7.43  12.97  #33
  H  10.56  7.52  14.4  #34
  O  15.28  10.69  4.43  #35
  H  15.22  9.72  4.59  #36
  H  14.65  11.12  4.99  #37
  O  8.22  6.37  9.7  #38
  H  8.82  6.57  8.95  #39
  H  7.4  5.91  9.35  #40
  O  8.89  7.85  18.26  #41
  H  8.66  8.74  18.45  #42
  H  8.05  7.32  18.2  #43
  O  9.46  16.54  15.83  #44
  H  10.32  17.01  16.03  #45
  H  9.63  15.84  15.19  #46
  O  5.74  9.5  16.16  #47
  H  6.66  9.64  16.29  #48
  H  5.69  8.6  15.76  #49
  O  13.17  8.29  5.14  #50
  H  13.27  7.78  4.29  #51
  H  13.06  7.7  5.89  #52
  O  12.96  13.77  10.05  #53
  H  13.53  14.22  10.67  #54
  H  13.25  13.9  9.16  #55
  O  12.44  14.89  14.02  #56
  H  12.58  14.24  14.72  #57
  H  13.09  14.91  13.35  #58
  O  8.16  10.69  6.72  #59
  H  9.11  10.51  6.82  #60
  H  7.79  10.11  7.32  #61
  O  14.48  13.81  17.52  #62
  H  15.39  13.86  17.23  #63
  H  13.99  13.35  16.85  #64
  O  10.78  10.16  5.23  #65
  H  11.31  9.38  5.3  #66
  H  10.11  10.06  4.55  #67
  O  10.36  7.36  7.87  #68
  H  10.24  7.25  6.91  #69
  H  10.48  8.31  7.98  #70
  O  14.56  10.39  14.76  #71
  H  14.83  9.74  14.09  #72
  H  14.86  11.23  14.37  #73
  O  5.42  7.49  10.83  #74
  H  4.68  8.09  10.77  #75
  H  5.94  7.7  11.6  #76
  O  8.12  7.93  15.13  #77
  H  8.08  8.16  14.18  #78
  H  8.54  8.73  15.48  #79
  O  15.82  9.02  8.81  #80
  H  15.77  8.05  8.69  #81
  H  15.05  9.25  8.21  #82
  O  6.92  11.07  11.09  #83
  H  7.69  11.08  11.76  #84
  H  7.2  10.52  10.36  #85
  O  10.15  15.2  10.67  #86
  H  11  14.71  10.8  #87
  H  9.86  15  9.81  #88
  O  14.5  12.5  7.67  #89
  H  14.07  13.33  7.42  #90
  H  15.44  12.69  7.81  #91
  O  12.3  10.05  16.36  #92
  H  13.18  9.86  15.98  #93
  H  11.7  9.31  16.24  #94
  O  6.92  15.29  12.25  #95
  H  7.29  16.05  11.76  #96
  H  7.12  15.5  13.13  #97
  O  7.46  12.45  14.53  #98
  H  7.86  13.33  14.47  #99
  H  6.84  12.44  13.8  #100
  O  10.4  13.32  17.88  #101
  H  10.8  12.59  18.39  #102
  H  9.95  13.71  18.64  #103
  O  8.26  10.4  19.37  #104
  H  7.37  10.79  19.53  #105
  H  8.84  11.17  19.63  #106
  Q  0.6645  14.14$  7.92$  18.06$
  Q  0.6645  14.36$  9.34$  18.58$
  Q  -1.3290  14.45$  8.52$  18.6$
  Q  0.6645  3.69$  9.83$  9.77$
  Q  0.6645  2.95$  8.55$  9.52$
  Q  -1.3290  3.17$  9.21$  9.95$
  Q  0.6645  12.63$  14.53$  6.89$
  Q  0.6645  13.84$  15.54$  6.85$
  Q  -1.3290  13.27$  14.98$  7.22$
  Q  0.6645  14.92$  17.77$  12.03$
  Q  0.6645  14.74$  17.11$  10.59$
  Q  -1.3290  15.15$  17.32$  11.34$
  Q  0.6645  9.22$  16.13$  17.94$
  Q  0.6645  9.45$  17.06$  19.14$
  Q  -1.3290  9.09$  16.44$  18.73$
  Q  0.6645  6.98$  12.96$  1.86$
  Q  0.6645  6.51$  13.07$  3.32$
  Q  -1.3290  7.04$  12.84$  2.7$
  Q  0.6645  20.61$  12.11$  11.13$
  Q  0.6645  19.91$  12.58$  9.85$
  Q  -1.3290  20.22$  12.67$  10.63$
  Q  0.6645  4.91$  11.8$  8.81$
  Q  0.6645  4.36$  10.97$  7.64$
  Q  -1.3290  4.58$  11.12$  8.44$
  Q  0.6645  18.62$  10.3$  7.63$
  Q  0.6645  17.25$  9.8$  7.88$
  Q  -1.3290  17.92$  9.95$  7.42$
  Q  0.6645  9.13$  4.97$  10.97$
  Q  0.6645  7.88$  4.11$  11.43$
  Q  -1.3290  8.72$  4.33$  11.41$
  Q  0.6645  5.1$  12.45$  20.21$
  Q  0.6645  5.99$  12.47$  18.95$
  Q  -1.3290  5.78$  12.28$  19.73$
  Q  0.6645  10.65$  4.14$  8.41$
  Q  0.6645  10.94$  5.62$  8.77$
  Q  -1.3290  11.08$  4.83$  8.78$
  Q  0.6645  12.52$  17.04$  13.56$
  Q  0.6645  11.8$  18.18$  12.9$
  Q  -1.3290  12.37$  17.83$  13.38$
  Q  0.6645  15.6$  19.23$  13.79$
  Q  0.6645  14.15$  19.22$  13.47$
  Q  -1.3290  14.93$  19.33$  13.28$
  Q  0.6645  5.89$  2.48$  11.93$
  Q  0.6645  6.75$  3.36$  12.82$
  Q  -1.3290  6.42$  3.08$  12.09$
  Q  0.6645  16.38$  18.83$  8.15$
  Q  0.6645  15.65$  19.75$  7.16$
  Q  -1.3290  15.99$  19.02$  7.44$
  Q  0.6645  3.33$  11.04$  4.91$
  Q  0.6645  3.32$  12.31$  5.93$
  Q  -1.3290  3.66$  11.62$  5.48$
  Q  0.6645  19.96$  10.29$  15.63$
  Q  0.6645  20.27$  11.82$  15.36$
  Q  -1.3290  20.33$  10.98$  15.24$
  Q  0.6645  5.6$  8.52$  1.82$
  Q  0.6645  5.14$  7.19$  1.43$
  Q  -1.3290  5.02$  7.95$  1.76$
  Q  0.6645  18.25$  17.56$  9.91$
  Q  0.6645  16.69$  17.83$  10.42$
  Q  -1.3290  17.36$  17.73$  9.84$
  Q  0.6645  10.51$  14.31$  6.08$
  Q  0.6645  11.41$  15.02$  4.86$
  Q  -1.3290  11.08$  14.38$  5.38$
  Q  0.6645  11.76$  16.56$  2.89$
  Q  0.6645  12.99$  16.18$  3.73$
  Q  -1.3290  12.17$  16.44$  3.61$
  Q  0.6645  5.46$  3.8$  14.86$
  Q  0.6645  5.81$  5.27$  15.05$
  Q  -1.3290  5.9$  4.49$  14.69$
  Q  0.6645  16.68$  9.08$  11.98$
  Q  0.6645  15.75$  9.31$  10.73$
  Q  -1.3290  16.11$  9.5$  11.46$
  Q  0.6645  16.28$  10.33$  16.59$
  Q  0.6645  17.27$  10.5$  17.7$
  Q  -1.3290  16.88$  10.73$  17.02$
  Q  0.6645  18.46$  13.55$  4.6$
  Q  0.6645  18.6$  15.07$  4.4$
  Q  -1.3290  18.55$  14.25$  4.17$
  Q  0.6645  11.63$  17.41$  20.57$
  Q  0.6645  10.79$  18.48$  21.45$
  Q  -1.3290  11.23$  18.16$  20.74$
  Q  0.6645  16.14$  7.34$  15.89$
  Q  0.6645  16.09$  7.95$  17.35$
  Q  -1.3290  16.45$  7.65$  16.62$
  Q  0.6645  2.69$  14.1$  12.61$
  Q  0.6645  4.21$  13.81$  12.73$
  Q  -1.3290  3.52$  14.32$  12.73$
  Q  0.6645  5.41$  17.45$  13.21$
  Q  0.6645  5.2$  18.89$  12.62$
  Q  -1.3290  5.58$  18.11$  12.71$
  Q  0.6645  3.05$  14.38$  16.09$
  Q  0.6645  3.84$  13.96$  14.86$
  Q  -1.3290  3.47$  13.82$  15.59$
  Q  0.6645  12.72$  12.43$  21.19$
  Q  0.6645  12.42$  13.43$  22.3$
  Q  -1.3290  12.35$  13.13$  21.5$
  Q  0.6645  7.83$  10.41$  4.95$
  Q  0.6645  7.69$  10.99$  3.42$
  Q  -1.3290  7.93$  10.45$  4.07$
  Q  0.6645  8.02$  4.18$  15.26$
  Q  0.6645  8.65$  2.8$  15.34$
  Q  -1.3290  8.57$  3.62$  15.54$
  Q  0.6645  18.22$  9.54$  14.12$
  Q  0.6645  18.91$  8.33$  13.64$
  Q  -1.3290  18.25$  8.78$  13.79$
  Q  0.6645  4.56$  15.17$  19.41$
  Q  0.6645  3.43$  14.32$  19.94$
  Q  -1.3290  3.94$  14.97$  19.94$
  Q  0.6645  7.39$  9.14$  0.2$
  Q  0.6645  7.16$  10.63$  0.66$
  Q  -1.3290  6.93$  9.86$  0.36$
  Q  0.6645  12.19$  9.22$  21.56$
  Q  0.6645  12.63$  8.15$  20.6$
  Q  -1.3290  12.06$  8.67$  20.92$
  Q  0.6645  4.29$  5.61$  5.6$
  Q  0.6645  3.85$  6.86$  4.93$
  Q  -1.3290  3.75$  6.21$  5.46$
  Q  0.6645  12.17$  18.89$  18.14$
  Q  0.6645  12.25$  17.34$  17.83$
  Q  -1.3290  11.94$  18.14$  17.76$
  Q  0.6645  15.29$  7.67$  20.27$
  Q  0.6645  15.83$  7.82$  21.71$
  Q  -1.3290  15.59$  7.38$  21.02$
  Q  0.6645  13.04$  12.39$  2.8$
  Q  0.6645  13.89$  12.25$  1.48$
  Q  -1.3290  13.19$  12.39$  1.95$
  Q  0.6645  16.05$  12.11$  1.7$
  Q  0.6645  15.55$  10.98$  2.55$
  Q  -1.3290  15.72$  11.37$  1.81$
  Q  0.6645  10.22$  20.38$  8.76$
  Q  0.6645  8.86$  20.48$  7.94$
  Q  -1.3290  9.68$  20.59$  8.11$
  Q  0.6645  9.38$  21.08$  11.98$
  Q  0.6645  8.91$  21.99$  13.16$
  Q  -1.3290  8.81$  21.53$  12.46$
  Q  0.6645  10.4$  15.81$  0.5$
  Q  0.6645  10.4$  15.15$  1.85$
  Q  -1.3290  10.78$  15.49$  1.17$
  Q  0.6645  17.04$  4.09$  16.88$
  Q  0.6645  17.01$  5.57$  16.81$
  Q  -1.3290  17.14$  4.82$  16.49$
  Q  0.6645  18.02$  9.83$  19.94$
  Q  0.6645  18.95$  10.74$  19.19$
  Q  -1.3290  18.49$  10.06$  19.28$
  Q  0.6645  5.8$  7.53$  19.12$
  Q  0.6645  6.1$  6.08$  19.25$
  Q  -1.3290  6.17$  6.82$  18.89$
  Q  0.6645  2.5$  9.29$  13.21$
  Q  0.6645  2.24$  9.2$  11.74$
  Q  -1.3290  2.04$  9.12$  12.53$
  Q  0.6645  19.28$  15.77$  13.1$
  Q  0.6645  17.83$  15.83$  13.82$
  Q  -1.3290  18.5$  16.12$  13.38$
  Q  0.6645  12.08$  19.12$  6.57$
  Q  0.6645  12.93$  20.06$  7.59$
  Q  -1.3290  12.78$  19.49$  6.97$
  Q  0.6645  5.21$  17.18$  10.43$
  Q  0.6645  4.87$  15.99$  11.19$
  Q  -1.3290  5.08$  16.39$  10.5$
  Q  0.6645  13.13$  16$  19.78$
  Q  0.6645  12.54$  15.05$  20.72$
  Q  -1.3290  12.75$  15.8$  20.5$
  Q  0.6645  17.32$  13.92$  2.51$
  Q  0.6645  16.81$  14.27$  1.04$
  Q  -1.3290  16.81$  13.87$  1.81$
  Q  0.6645  9.33$  0.97$  11.33$
  Q  0.6645  9.59$  2.44$  11.05$
  Q  -1.3290  9.64$  1.61$  10.91$
  Q  0.6645  6.99$  12.91$  10.16$
  Q  0.6645  6.15$  14.15$  10.17$
  Q  -1.3290  6.39$  13.41$  9.9$
  Q  0.6645  9.27$  19.83$  18.03$
  Q  0.6645  10.21$  19.27$  19.24$
  Q  -1.3290  9.5$  19.59$  18.87$
  Q  0.6645  13.25$  6.93$  1.87$
  Q  0.6645  13.35$  8.48$  2.16$
  Q  -1.3290  13.55$  7.64$  2.23$
  Q  0.6645  18.39$  12.39$  11.19$
  Q  0.6645  16.9$  11.61$  11.3$
  Q  -1.3290  17.5$  12.25$  11.15$
  Q  0.6645  15.23$  4.29$  2.39$
  Q  0.6645  14.35$  3.77$  3.4$
  Q  -1.3290  14.58$  3.88$  2.62$
  Q  0.6645  11.9$  4.11$  4.46$
  Q  0.6645  10.85$  4.32$  3.36$
  Q  -1.3290  11.13$  4.26$  4.14$
  Q  0.6645  3.22$  14.34$  7.02$
  Q  0.6645  1.79$  14.05$  6.72$
  Q  -1.3290  2.58$  13.84$  6.87$
  Q  0.6645  9.46$  2.85$  17.29$
  Q  0.6645  9.86$  1.39$  17.13$
  Q  -1.3290  9.78$  2.12$  17.55$
  Q  0.6645  3.41$  17.12$  14.87$
  Q  0.6645  3.8$  16.03$  13.86$
  Q  -1.3290  3.92$  16.72$  14.36$
  Q  0.6645  12.18$  5.71$  7.33$
  Q  0.6645  13.64$  6.18$  7.45$
  Q  -1.3290  12.9$  6.1$  7.07$
  Q  0.6645  6.54$  13.22$  7.85$
  Q  0.6645  7.23$  12.22$  6.84$
  Q  -1.3290  6.84$  12.92$  7.12$
  Q  0.6645  8.75$  7.13$  0.07$
  Q  0.6645  8.93$  7.74$  1.54$
  Q  -1.3290  8.51$  7.43$  0.85$
  Q  0.6645  16.71$  7.22$  3.22$
  Q  0.6645  15.33$  7.7$  3.37$
  Q  -1.3290  16.11$  7.64$  3.6$
  Q  0.6645  7.44$  20$  16.35$
  Q  0.6645  8.81$  19.98$  15.68$
  Q  -1.3290  8.22$  20.27$  16.26$
  Q  0.6645  13.1$  7.55$  13.99$
  Q  0.6645  14.61$  7.13$  13.79$
  Q  -1.3290  13.93$  7.49$  14.18$
  Q  0.6645  8.43$  2.5$  8.25$
  Q  0.6645  8.12$  3.93$  7.77$
  Q  -1.3290  8.59$  3.29$  8.03$
  Q  0.6645  4.57$  10.41$  17.2$
  Q  0.6645  3.13$  10.38$  17.51$
  Q  -1.3290  3.9$  10.59$  17.65$
  Q  0.6645  3.86$  13.37$  3.87$
  Q  0.6645  2.45$  13.53$  3.06$
  Q  -1.3290  3.3$  13.46$  3.13$
  Q  0.6645  6.67$  7.3$  5$
  Q  0.6645  6.95$  6.3$  6.18$
  Q  -1.3290  6.94$  6.56$  5.36$
  Q  0.6645  9.44$  18.3$  12.45$
  Q  0.6645  9.98$  17.25$  11.52$
  Q  -1.3290  9.97$  18.01$  11.89$
  Q  0.6645  6.68$  13.15$  16.31$
  Q  0.6645  5.25$  12.93$  16.78$
  Q  -1.3290  6.07$  13.1$  16.88$
  Q  0.6645  11.28$  1.62$  12.08$
  Q  0.6645  11.58$  2.47$  13.31$
  Q  -1.3290  11.5$  1.75$  12.87$
  Q  0.6645  16.49$  3.28$  6.96$
  Q  0.6645  17.79$  3.01$  6.21$
  Q  -1.3290  17$  3.25$  6.29$
  Q  0.6645  0.38$  12.17$  15.11$
  Q  0.6645  1.82$  12.69$  15.21$
  Q  -1.3290  1.21$  12.17$  14.94$
  Q  0.6645  15.6$  5.37$  8.84$
  Q  0.6645  16.03$  6.18$  7.67$
  Q  -1.3290  15.66$  6.07$  8.4$
  Q  0.6645  12.79$  4.02$  10.06$
  Q  0.6645  13.85$  3.37$  10.84$
  Q  -1.3290  13.37$  3.47$  10.19$
  Q  0.6645  10.49$  7.59$  20.73$
  Q  0.6645  9.33$  7.21$  19.91$
  Q  -1.3290  9.84$  7.09$  20.54$
  Q  0.6645  14.6$  3.43$  16.44$
  Q  0.6645  15.48$  3.19$  15.28$
  Q  -1.3290  14.81$  3.08$  15.72$
  Q  0.6645  18.76$  12.41$  8.22$
  Q  0.6645  20.23$  12.13$  7.63$
  Q  -1.3290  19.51$  11.99$  8.14$
  Q  0.6645  16.87$  5.5$  14.46$
  Q  0.6645  17.36$  6.95$  13.85$
  Q  -1.3290  16.84$  6.22$  13.98$
  Q  0.6645  18.7$  4.77$  9.79$
  Q  0.6645  18.8$  3.92$  11.15$
  Q  -1.3290  18.48$  4.16$  10.38$
  Q  0.6645  9.98$  4.28$  13.2$
  Q  0.6645  10.33$  4.51$  14.67$
  Q  -1.3290  10.51$  4.4$  13.84$
  Q  0.6645  14.01$  15.4$  17.93$
  Q  0.6645  14.48$  16.87$  18.09$
  Q  -1.3290  13.89$  16.22$  18.07$
  Q  0.6645  16.84$  6.71$  5.5$
  Q  0.6645  17.04$  5.2$  5.87$
  Q  -1.3290  16.97$  6.05$  6$
  Q  0.6645  20.72$  14.44$  11.41$
  Q  0.6645  20.82$  15.94$  11.45$
  Q  -1.3290  20.87$  15.17$  11.78$
  Q  0.6645  16.37$  18.14$  16.97$
  Q  0.6645  16.39$  18$  18.57$
  Q  -1.3290  16.16$  17.85$  17.73$
  Q  0.6645  5.49$  17.41$  4.74$
  Q  0.6645  4.19$  16.8$  5.34$
  Q  -1.3290  5.02$  16.84$  5.21$
  Q  0.6645  3.79$  5.15$  9.31$
  Q  0.6645  4.88$  4.52$  10.26$
  Q  -1.3290  4.41$  4.58$  9.55$
  Q  0.6645  4.66$  6.01$  11.76$
  Q  0.6645  4.75$  4.73$  12.75$
  Q  -1.3290  4.45$  5.26$  12.09$
  Q  0.6645  21.19$  9.55$  11.51$
  Q  0.6645  21.06$  8.14$  11.77$
  Q  -1.3290  21.01$  8.78$  11.29$
  Q  0.6645  15.01$  4.6$  12.09$
  Q  0.6645  16.36$  5.14$  11.81$
  Q  -1.3290  15.75$  4.56$  11.74$
  Q  0.6645  9.42$  17.46$  6.19$
  Q  0.6645  8.26$  16.87$  5.5$
  Q  -1.3290  8.73$  17$  6.16$
  Q  0.6645  6.12$  9.7$  4.47$
  Q  0.6645  4.77$  9.26$  5.01$
  Q  -1.3290  5.53$  9.16$  4.72$
  Q  0.6645  4.33$  6.78$  15.71$
  Q  0.6645  5.58$  6.68$  16.79$
  Q  -1.3290  5.19$  6.77$  16.01$
  Q  0.6645  15.17$  17.56$  6.33$
  Q  0.6645  14.99$  16.81$  4.99$
  Q  -1.3290  15.04$  16.87$  5.85$
  Q  0.6645  11.41$  19.16$  16.24$
  Q  0.6645  11.39$  19.09$  14.72$
  Q  -1.3290  11.16$  19.39$  15.47$
  Q  0.6645  17.22$  14.18$  7.96$
  Q  0.6645  17.09$  13.14$  9.09$
  Q  -1.3290  17.16$  13.41$  8.29$
  Q  0.6645  11.43$  9.61$  1.82$
  Q  0.6645  12.33$  10.92$  1.53$
  Q  -1.3290  12.12$  10.05$  1.51$
  Q  0.6645  6.94$  16.18$  18.72$
  Q  0.6645  6.16$  15$  17.95$
  Q  -1.3290  6.28$  15.76$  18.35$
  Q  0.6645  13.88$  17.97$  8.82$
  Q  0.6645  13.38$  16.55$  8.72$
  Q  -1.3290  13.77$  17.18$  9.09$
  Q  0.6645  20.39$  7.4$  8.18$
  Q  0.6645  21.02$  8.35$  9.34$
  Q  -1.3290  21.02$  7.85$  8.6$
  Q  0.6645  9.2$  8.76$  3.34$
  Q  0.6645  10.29$  7.87$  3.52$
  Q  -1.3290  9.88$  8.41$  3.1$
  Q  0.6645  17.32$  1.76$  13.49$
  Q  0.6645  16.54$  2.93$  12.97$
  Q  -1.3290  16.95$  2.49$  13.55$
  Q  0.6645  18.18$  11.24$  5.61$
  Q  0.6645  17.24$  11.38$  4.5$
  Q  -1.3290  17.96$  11.52$  4.86$
  Q  0.6645  16.49$  10.73$  21.73$
  Q  0.6645  15.74$  10.96$  20.39$
  Q  -1.3290  16.38$  11.04$  20.94$
  Q  0.6645  0.46$  9$  8.11$
  Q  0.6645  1.57$  10.03$  8.54$
  Q  -1.3290  1.05$  9.61$  8.01$
  Q  0.6645  11.52$  6.93$  16.76$
  Q  0.6645  10.13$  7.49$  16.74$
  Q  -1.3290  10.94$  7.4$  16.46$
  Q  0.6645  18.38$  4.25$  13.34$
  Q  0.6645  19.78$  4.23$  14.01$
  Q  -1.3290  19.22$  4.38$  13.4$
  Q  0.6645  15.1$  15.48$  12.07$
  Q  0.6645  15.19$  14.14$  12.76$
  Q  -1.3290  14.79$  14.75$  12.34$
  Q  0.6645  22.56$  10.42$  12.72$
  Q  0.6645  21.41$  10.99$  13.46$
  Q  -1.3290  21.85$  10.84$  12.76$
  Q  0.6645  2.08$  6.52$  15.68$
  Q  0.6645  2$  6.74$  14.22$
  Q  -1.3290  2.37$  6.81$  14.95$
  Q  0.6645  15.62$  15.3$  2.67$
  Q  0.6645  15.21$  16.72$  2.43$
  Q  -1.3290  15.27$  16.04$  2.88$
  Q  0.6645  9.14$  3.47$  5.01$
  Q  0.6645  7.92$  3.52$  4$
  Q  -1.3290  8.37$  3.26$  4.68$
  Q  0.6645  5.73$  4.87$  7.91$
  Q  0.6645  6.61$  4.28$  6.8$
  Q  -1.3290  6.37$  4.87$  7.38$
  Q  0.6645  12.22$  12.77$  4.96$
  Q  0.6645  12.28$  11.29$  4.62$
  Q  -1.3290  12.56$  12.06$  4.57$
  Q  0.6645  14.31$  4.36$  18.89$
  Q  0.6645  12.89$  3.85$  18.55$
  Q  -1.3290  13.64$  4.17$  18.4$
  Q  0.6645  5.36$  17.55$  17.49$
  Q  0.6645  4.65$  18.52$  16.7$
  Q  -1.3290  5.31$  18.27$  17.12$
  Q  0.6645  10.88$  1.5$  9.11$
  Q  0.6645  12.3$  2.2$  9.14$
  Q  -1.3290  11.69$  1.69$  8.85$
  Q  0.6645  16.94$  15.96$  18.03$
  Q  0.6645  17.27$  14.66$  18.87$
  Q  -1.3290  17.35$  15.22$  18.23$
  Q  0.6645  18.47$  8.54$  4.05$
  Q  0.6645  18.65$  8.57$  5.56$
  Q  -1.3290  18.88$  8.48$  4.77$
  Q  0.6645  6.11$  15.67$  15.11$
  Q  0.6645  7.46$  15.73$  15.95$
  Q  -1.3290  6.92$  15.48$  15.34$
  Q  0.6645  13.1$  11.16$  18.77$
  Q  0.6645  14.35$  12.05$  18.52$
  Q  -1.3290  13.87$  11.44$  18.92$
  Q  0.6645  3.33$  10.47$  14.82$
  Q  0.6645  4.69$  9.96$  14.57$
  Q  -1.3290  3.91$  10.16$  14.35$
  Q  0.6645  3.2$  12.08$  18.82$
  Q  0.6645  2.4$  11.81$  20.09$
  Q  -1.3290  2.7$  12.28$  19.46$
  Q  0.6645  17.61$  19.07$  14.18$
  Q  0.6645  16.89$  19.9$  15.29$
  Q  -1.3290  17.2$  19.17$  14.92$
  Q  0.6645  8.98$  6.74$  4.83$
  Q  0.6645  10.32$  5.81$  4.92$
  Q  -1.3290  9.78$  6.48$  5.05$
  Q  0.6645  16.52$  15.89$  6.88$
  Q  0.6645  16.89$  16.55$  8.02$
  Q  -1.3290  17$  15.98$  7.49$
  Q  0.6645  12.91$  4.46$  2.04$
  Q  0.6645  11.69$  4.63$  1.06$
  Q  -1.3290  12.18$  4.8$  1.76$
  Q  0.6645  10.45$  19.35$  5.08$
  Q  0.6645  11.3$  18.08$  4.87$
  Q  -1.3290  10.88$  18.67$  5.33$
  Q  0.6645  18.16$  9.07$  0.66$
  Q  0.6645  16.7$  9.14$  1.39$
  Q  -1.3290  17.31$  8.83$  0.88$
  Q  0.6645  20.1$  5.87$  12.96$
  Q  0.6645  20.93$  6.83$  13.93$
  Q  -1.3290  20.63$  6.54$  13.19$
  Q  0.6645  16.5$  3.61$  9.4$
  Q  0.6645  15.08$  3.07$  9.11$
  Q  -1.3290  15.9$  3.3$  8.93$
  Q  0.6645  3.08$  6.85$  7.64$
  Q  0.6645  2.3$  6.32$  8.93$
  Q  -1.3290  2.91$  6.74$  8.49$
  Q  0.6645  1.03$  10.09$  15.6$
  Q  0.6645  1.88$  8.73$  15.69$
  Q  -1.3290  1.42$  9.42$  15.99$
  Q  0.6645  18.68$  18.24$  12.68$
  Q  0.6645  19.46$  19.58$  12.49$
  Q  -1.3290  18.76$  19.06$  12.62$
  Q  0.6645  16.78$  13.01$  12.8$
  Q  0.6645  16.53$  13.2$  14.28$
  Q  -1.3290  16.34$  12.92$  13.52$
  Q  0.6645  9.47$  14.83$  20.23$
  Q  0.6645  10.39$  13.64$  20.77$
  Q  -1.3290  9.66$  14.04$  20.46$
  Q  0.6645  8.62$  13.9$  2.9$
  Q  0.6645  9.59$  14$  3.82$
  Q  -1.3290  9.23$  14.27$  3.2$
  Q  0.6645  1.51$  7.18$  12.32$
  Q  0.6645  2.48$  5.93$  12.36$
  Q  -1.3290  1.72$  6.36$  12.32$
  Q  0.6645  9.36$  15.52$  7.27$
  Q  0.6645  8.71$  14.06$  7.65$
  Q  -1.3290  9.37$  14.68$  7.51$
  Q  0.6645  7.82$  17.59$  2.68$
  Q  0.6645  8.65$  16.31$  3.06$
  Q  -1.3290  8.43$  17.15$  3.07$
  Q  0.6645  13.76$  3.48$  14.01$
  Q  0.6645  12.66$  4.19$  13.32$
  Q  -1.3290  13.43$  3.89$  13.38$
  Q  0.6645  4.62$  11.66$  13.26$
  Q  0.6645  5.72$  12.11$  12.21$
  Q  -1.3290  5.18$  12.18$  12.88$
  Q  0.6645  13.39$  4.52$  6.04$
  Q  0.6645  13.55$  2.99$  5.63$
  Q  -1.3290  13.46$  3.84$  5.49$
  Q  0.6645  0.59$  14.34$  12.2$
  Q  0.6645  0.8$  13.04$  12.87$
  Q  -1.3290  1.01$  13.66$  12.35$
  Q  0.6645  8.34$  17.79$  14.44$
  Q  0.6645  7.38$  18.42$  13.37$
  Q  -1.3290  8.05$  18.4$  13.91$
  Q  0.6645  5.39$  14.98$  4.9$
  Q  0.6645  6.06$  13.72$  5.4$
  Q  -1.3290  5.64$  14.18$  4.82$
  Q  0.6645  11.2$  9.68$  19.61$
  Q  0.6645  11.32$  10.23$  18.12$
  Q  -1.3290  11.18$  10.27$  18.95$
  Q  0.6645  4.47$  16.11$  8.55$
  Q  0.6645  4.95$  15.84$  7.11$
  Q  -1.3290  4.43$  15.77$  7.76$
  Q  0.6645  5.89$  9.74$  8.91$
  Q  0.6645  6.41$  8.48$  9.37$
  Q  -1.3290  6.44$  9.16$  8.92$
  Q  0.6645  2.33$  17.88$  11.52$
  Q  0.6645  2.49$  16.37$  12$
  Q  -1.3290  2.12$  17.14$  11.93$
  Q  0.6645  5.54$  19.64$  10.33$
  Q  0.6645  5.92$  19.06$  9.03$
  Q  -1.3290  5.36$  19.23$  9.63$
  Q  0.6645  7.57$  18.35$  7.67$
  Q  0.6645  6.76$  19.37$  7.02$
  Q  -1.3290  7.07$  19.01$  7.68$
  Q  0.6645  13.67$  5.67$  17.37$
  Q  0.6645  13.78$  6.77$  16.13$
  Q  -1.3290  13.71$  6.44$  16.95$
  Q  0.6645  6.94$  12.56$  21.25$
  Q  0.6645  8.13$  13.55$  21.64$
  Q  -1.3290  7.46$  12.99$  21.78$
  Q  0.6645  10.21$  19.51$  10.77$
  Q  0.6645  11.25$  20.46$  10.45$
  Q  -1.3290  10.5$  20.27$  10.65$
  Q  0.6645  1.94$  12.9$  8.95$
  Q  0.6645  1.51$  13.25$  10.27$
  Q  -1.3290  1.42$  12.9$  9.54$
  Q  0.6645  5.4$  9.26$  20.8$
  Q  0.6645  4.61$  9.62$  19.59$
  Q  -1.3290  4.88$  9.09$  20.18$
  Q  0.6645  19.5$  9.16$  17.21$
  Q  0.6645  18.48$  8.29$  16.36$
  Q  -1.3290  19.21$  8.73$  16.53$
  Q  0.6645  19.98$  5.09$  7.66$
  Q  0.6645  18.65$  5.91$  7.36$
  Q  -1.3290  19.33$  5.62$  7.82$
  Q  0.6645  17.37$  14.45$  16.5$
  Q  0.6645  17.29$  12.94$  16.14$
  Q  -1.3290  17.21$  13.78$  16$
*
