! NoMOPrint PrintBasis #MINIPRINT SMALLPRINT LARGEPRINT
! ALLPOP XYZFILE
#! BP86 3-21G   TightSCF
! ENGRAD
! B3LYP NormalPNO PModel #DecontractAux
#! VerySlowConv 
 %maxcore 5000
 %scf  maxiter   500  end 

%pal
    nprocs 32
end

%basis
    NewGTO O    # New basis for oxygen
        "aug-cc-pVTZ"
    end
    NewGTO C    # New basis for carbon
        "aug-cc-pVTZ"
    end
    NewGTO H    # New basis for hydrogen
        "cc-pVTZ"
    end
end

* xyz 0   1
  C  12.06  11.06  12.32  #1
  H  13.07  11.45  12.52  #2
  H  12.16  9.96  12.49  #3
  C  11.58  11.25  10.92  #4
  H  11.26  12.32  10.77  #5
  H  12.46  11.02  10.33  #6
  C  10.46  10.23  10.57  #7
  H  9.64  10.22  11.24  #8
  H  10.91  9.23  10.7  #9
  C  9.88  10.34  9.18  #10
  H  8.95  9.74  9.02  #11
  H  10.64  9.94  8.42  #12
  O  9.54  11.69  8.93  #13
  H  8.7  11.82  9.44  #14
  O  11.14  11.56  13.27  #15
  H  11.32  12.53  13.35  #16
  O  10.71  6.91  11.46  #17
  H  11.6  6.99  11.78  #18
  H  10.07  7.26  12.1  #19
  O  15.42  12.18  11.22  #20
  H  15.52  11.22  11.38  #21
  H  16.3  12.52  10.89  #22
  O  14.33  12.4  8.46  #23
  H  14.9  12.12  7.72  #24
  H  14.79  12.14  9.26  #25
  O  12.46  13.93  14.71  #26
  H  12.13  14.8  14.5  #27
  H  13.32  13.84  14.33  #28
  O  7.22  12.25  10.27  #29
  H  6.39  12.11  9.79  #30
  H  7.21  13.12  10.62  #31
  O  15.31  10.47  14.85  #32
  H  15.28  9.57  14.43  #33
  H  15.15  11.06  14.14  #34
  O  13.55  8.83  8.28  #35
  H  14.11  8.93  7.49  #36
  H  12.79  8.32  8.03  #37
  O  10.24  5.32  13.81  #38
  H  10.55  5.95  14.52  #39
  H  9.61  5.98  13.43  #40
  O  9.91  14.63  9.26  #41
  H  10.59  14.87  9.91  #42
  H  10.06  13.68  8.98  #43
  O  7.58  14.48  12.18  #44
  H  8.21  14.97  12.75  #45
  H  7.23  13.8  12.79  #46
  O  8.86  11.18  14.55  #47
  H  8.33  11.09  13.73  #48
  H  9.75  11.06  14.13  #49
  O  14.84  8.96  10.91  #50
  H  14.55  8.93  9.95  #51
  H  14.19  8.33  11.24  #52
  O  11.85  11.55  5.96  #53
  H  12.55  11.59  6.53  #54
  H  11.13  11.76  6.57  #55
  O  17.49  13.53  10.21  #56
  H  17.23  14.41  10.52  #57
  H  18.41  13.36  10.48  #58
  O  13.37  7.11  12.31  #59
  H  13.58  7.28  13.24  #60
  H  13.75  6.24  12.18  #61
  O  11.43  7.12  8.52  #62
  H  11  7.18  9.37  #63
  H  10.71  6.75  7.96  #64
  O  17.49  10.1  11.81  #65
  H  17.9  9.69  10.93  #66
  H  18.15  10.79  11.98  #67
  O  15.09  13.65  13.67  #68
  H  15.22  13.34  12.76  #69
  H  15.66  14.41  13.81  #70
  O  9.16  12.33  6.13  #71
  H  9.4  13.27  5.85  #72
  H  9.01  12.32  7.08  #73
  O  15.92  11.16  6.37  #74
  H  16.5  11.91  6.25  #75
  H  16.39  10.49  6.88  #76
  O  13.86  14.99  8.66  #77
  H  14.6  15.43  8.19  #78
  H  14.12  14.06  8.56  #79
  O  13.54  13.42  17.46  #80
  H  13.87  12.5  17.52  #81
  H  13.11  13.43  16.61  #82
  O  7.27  10.07  12.07  #83
  H  6.44  9.94  12.52  #84
  H  7.17  10.66  11.38  #85
  O  9.66  4.16  11.08  #86
  H  10.34  4.88  11.22  #87
  H  10.13  3.6  10.5  #88
  O  8.43  7.61  12.92  #89
  H  7.56  7.17  12.89  #90
  H  8.42  8.44  12.48  #91
  O  5.13  12.15  8.07  #92
  H  4.27  12.46  8.35  #93
  H  5.35  12.55  7.22  #94
  O  11.98  16.67  13.63  #95
  H  11.97  17.21  14.45  #96
  H  12.69  16.97  13.04  #97
  Q  0.6645  11.92$  11.48$  19.06$
  Q  0.6645  12.68$  12.17$  20.15$
  Q  -1.3290  11.98$  11.89$  19.74$
  Q  0.6645  16.84$  5.05$  8.57$
  Q  0.6645  17.7$  5.09$  9.94$
  Q  -1.3290  17.29$  4.73$  9.25$
  Q  0.6645  5.89$  3.35$  14.65$
  Q  0.6645  6.8$  3.45$  15.81$
  Q  -1.3290  6.05$  3.33$  15.46$
  Q  0.6645  19.64$  12.38$  5.26$
  Q  0.6645  18.92$  13.37$  6.17$
  Q  -1.3290  19.45$  13.16$  5.57$
  Q  0.6645  8.6$  5.61$  18.9$
  Q  0.6645  8.15$  5.21$  20.35$
  Q  -1.3290  8.4$  5.1$  19.56$
  Q  0.6645  11.22$  5.87$  19.07$
  Q  0.6645  11.82$  4.5$  19.37$
  Q  -1.3290  11.74$  5.24$  18.96$
  Q  0.6645  7.15$  16.91$  14.7$
  Q  0.6645  6.99$  15.64$  15.52$
  Q  -1.3290  7.06$  16.49$  15.42$
  Q  0.6645  10.1$  15.91$  20.02$
  Q  0.6645  9.82$  16.88$  18.89$
  Q  -1.3290  9.72$  16.57$  19.67$
  Q  0.6645  18.56$  8.72$  19.03$
  Q  0.6645  19.58$  9.45$  19.69$
  Q  -1.3290  19$  8.88$  19.67$
  Q  0.6645  7.08$  12.86$  21.29$
  Q  0.6645  8.63$  13.04$  20.93$
  Q  -1.3290  7.76$  12.94$  20.75$
  Q  0.6645  18.46$  13.59$  17.58$
  Q  0.6645  17.24$  14.32$  18.2$
  Q  -1.3290  17.95$  14.24$  17.75$
  Q  0.6645  6.22$  13.15$  14.99$
  Q  0.6645  7.32$  13.48$  15.9$
  Q  -1.3290  6.57$  13.58$  15.64$
  Q  0.6645  4.54$  10.49$  7.04$
  Q  0.6645  5.34$  9.11$  6.71$
  Q  -1.3290  4.66$  9.61$  7.01$
  Q  0.6645  16.78$  18.33$  13.95$
  Q  0.6645  18.12$  18.96$  13.55$
  Q  -1.3290  17.58$  18.61$  14.08$
  Q  0.6645  15.84$  18.65$  11.64$
  Q  0.6645  14.45$  18.48$  12.3$
  Q  -1.3290  15.28$  18.35$  12.24$
  Q  0.6645  3.45$  15.56$  10.36$
  Q  0.6645  2.09$  16.04$  10.23$
  Q  -1.3290  2.7$  15.51$  10.08$
  Q  0.6645  20.29$  16.3$  12.71$
  Q  0.6645  19.73$  14.8$  12.65$
  Q  -1.3290  19.87$  15.61$  12.97$
  Q  0.6645  0.8$  10.12$  5.82$
  Q  0.6645  0.02$  8.89$  6.01$
  Q  -1.3290  0.6$  9.41$  6.23$
  Q  0.6645  11.32$  2.45$  17.25$
  Q  0.6645  10.93$  3.93$  17.76$
  Q  -1.3290  10.82$  3.06$  17.64$
  Q  0.6645  0.66$  6.16$  10.42$
  Q  0.6645  2.08$  5.67$  10.68$
  Q  -1.3290  1.25$  5.61$  10.5$
  Q  0.6645  18.97$  7.68$  14.98$
  Q  0.6645  19.04$  6.2$  15.1$
  Q  -1.3290  19.35$  6.98$  14.91$
  Q  0.6645  8.15$  2.71$  7.07$
  Q  0.6645  7.96$  2.02$  8.51$
  Q  -1.3290  8.39$  2.26$  7.78$
  Q  0.6645  9.12$  10.32$  21.09$
  Q  0.6645  10.54$  10.82$  20.82$
  Q  -1.3290  9.89$  10.65$  21.31$
  Q  0.6645  1.78$  14.22$  12.37$
  Q  0.6645  0.42$  13.72$  12.63$
  Q  -1.3290  1.17$  13.68$  12.27$
  Q  0.6645  14.27$  19.04$  7.15$
  Q  0.6645  15.16$  18.24$  6.14$
  Q  -1.3290  14.99$  18.78$  6.78$
  Q  0.6645  12.2$  15.77$  1.32$
  Q  0.6645  11.74$  14.86$  2.47$
  Q  -1.3290  11.71$  15.21$  1.67$
  Q  0.6645  7.37$  8.54$  1.71$
  Q  0.6645  6.01$  8.15$  1.21$
  Q  -1.3290  6.62$  8.17$  1.74$
  Q  0.6645  10.53$  16.59$  7.97$
  Q  0.6645  11.91$  15.89$  8.09$
  Q  -1.3290  11.36$  16.51$  7.83$
  Q  0.6645  13.45$  2.06$  15.76$
  Q  0.6645  12.62$  0.88$  15.1$
  Q  -1.3290  12.92$  1.39$  15.73$
  Q  0.6645  19.49$  12.38$  12.97$
  Q  0.6645  20.32$  11.99$  11.72$
  Q  -1.3290  19.88$  12.52$  12.24$
  Q  0.6645  8.28$  5.2$  3.02$
  Q  0.6645  7.51$  6.58$  2.88$
  Q  -1.3290  7.77$  5.78$  2.67$
  Q  0.6645  12.11$  18.85$  11.72$
  Q  0.6645  13.08$  19.89$  12.3$
  Q  -1.3290  12.84$  19.14$  12.05$
  Q  0.6645  13.81$  10.22$  1.2$
  Q  0.6645  14.06$  10.74$  2.5$
  Q  -1.3290  13.58$  10.37$  1.98$
  Q  0.6645  7.04$  3.44$  4.94$
  Q  0.6645  6.58$  4.13$  6.22$
  Q  -1.3290  7.11$  3.71$  5.72$
  Q  0.6645  11.63$  3.11$  8.57$
  Q  0.6645  10.12$  2.75$  8.56$
  Q  -1.3290  10.89$  2.8$  8.89$
  Q  0.6645  2.09$  12.78$  6.22$
  Q  0.6645  2.89$  12.49$  4.88$
  Q  -1.3290  2.53$  12.31$  5.63$
  Q  0.6645  20.48$  10.66$  10.11$
  Q  0.6645  21.98$  10.68$  10.29$
  Q  -1.3290  21.21$  10.73$  10.55$
  Q  0.6645  6.97$  14.77$  7.46$
  Q  0.6645  8.15$  14.74$  8.48$
  Q  -1.3290  7.42$  14.98$  8.13$
  Q  0.6645  8.07$  17.12$  8.1$
  Q  0.6645  9.09$  18.38$  8.08$
  Q  -1.3290  8.63$  17.71$  7.76$
  Q  0.6645  16.25$  16.49$  15.62$
  Q  0.6645  16.26$  17.29$  16.92$
  Q  -1.3290  15.88$  16.89$  16.28$
  Q  0.6645  3.65$  7.64$  7.44$
  Q  0.6645  4.01$  7.05$  6.16$
  Q  -1.3290  3.66$  7$  6.92$
  Q  0.6645  2.9$  12.16$  2.31$
  Q  0.6645  3.88$  13.29$  2.7$
  Q  -1.3290  3.48$  12.54$  2.82$
  Q  0.6645  11.81$  18.83$  15.92$
  Q  0.6645  10.75$  20$  16.04$
  Q  -1.3290  11.24$  19.42$  15.65$
  Q  0.6645  6.4$  5.21$  8.3$
  Q  0.6645  5.09$  5.37$  7.55$
  Q  -1.3290  5.81$  5$  7.75$
  Q  0.6645  12$  10.06$  3.28$
  Q  0.6645  11.34$  10.58$  4.66$
  Q  -1.3290  11.4$  10.15$  3.94$
  Q  0.6645  14.96$  10.33$  18$
  Q  0.6645  14.64$  10.67$  16.45$
  Q  -1.3290  14.51$  10.66$  17.29$
  Q  0.6645  6.46$  5.75$  10.9$
  Q  0.6645  7.77$  5.1$  10.44$
  Q  -1.3290  7$  5.42$  10.35$
  Q  0.6645  12.61$  6.9$  4.62$
  Q  0.6645  11.57$  8.03$  4.64$
  Q  -1.3290  11.86$  7.27$  4.77$
  Q  0.6645  13.14$  15.56$  4.68$
  Q  0.6645  14.22$  16.3$  3.96$
  Q  -1.3290  13.59$  16.21$  4.5$
  Q  0.6645  16.76$  4.96$  13.22$
  Q  0.6645  15.57$  5.29$  12.29$
  Q  -1.3290  16.3$  5.44$  12.7$
  Q  0.6645  11.96$  20.79$  14.11$
  Q  0.6645  11.96$  22$  13.06$
  Q  -1.3290  12.27$  21.48$  13.67$
  Q  0.6645  19.97$  11.83$  7.4$
  Q  0.6645  20.48$  12.34$  8.73$
  Q  -1.3290  19.92$  11.96$  8.2$
  Q  0.6645  7.19$  1.09$  10.47$
  Q  0.6645  5.98$  1.91$  10.17$
  Q  -1.3290  6.68$  1.49$  9.97$
  Q  0.6645  18.04$  16.41$  12.21$
  Q  0.6645  16.78$  16.78$  11.48$
  Q  -1.3290  17.49$  16.35$  11.55$
  Q  0.6645  11.37$  4.1$  13.26$
  Q  0.6645  11.47$  2.78$  12.42$
  Q  -1.3290  11.78$  3.43$  12.9$
  Q  0.6645  17.5$  12.86$  14.19$
  Q  0.6645  17.64$  11.36$  14.31$
  Q  -1.3290  17.94$  12.14$  14.27$
  Q  0.6645  10.94$  12.12$  2.3$
  Q  0.6645  10.27$  12.17$  1.02$
  Q  -1.3290  10.38$  12.39$  1.81$
  Q  0.6645  11.79$  18.26$  20.13$
  Q  0.6645  12.09$  16.7$  19.76$
  Q  -1.3290  12.24$  17.5$  20.06$
  Q  0.6645  15$  4.9$  4.16$
  Q  0.6645  16.04$  5.96$  4.54$
  Q  -1.3290  15.63$  5.23$  4.62$
  Q  0.6645  16.03$  20.93$  15.07$
  Q  0.6645  16.62$  19.43$  15.5$
  Q  -1.3290  16.25$  20.24$  15.58$
  Q  0.6645  1.1$  5.2$  6.29$
  Q  0.6645  1.25$  6.64$  6.07$
  Q  -1.3290  0.82$  5.96$  6.12$
  Q  0.6645  8.97$  14.1$  2.4$
  Q  0.6645  8.03$  15.28$  2.94$
  Q  -1.3290  8.32$  14.67$  2.39$
  Q  0.6645  7.54$  14.23$  19.39$
  Q  0.6645  8.06$  15.6$  19.19$
  Q  -1.3290  7.65$  14.91$  18.96$
  Q  0.6645  5.99$  18.16$  6.29$
  Q  0.6645  7.55$  18.41$  6.3$
  Q  -1.3290  6.73$  18.47$  5.99$
  Q  0.6645  1.69$  4.66$  8.72$
  Q  0.6645  2.5$  5.12$  7.64$
  Q  -1.3290  2.19$  4.52$  8.09$
  Q  0.6645  5.18$  6.78$  12.64$
  Q  0.6645  5.74$  5.48$  12.92$
  Q  -1.3290  5.8$  6.27$  12.78$
  Q  0.6645  19.16$  9.84$  14.35$
  Q  0.6645  17.79$  9.16$  13.72$
  Q  -1.3290  18.38$  9.42$  14.32$
  Q  0.6645  2.1$  16.48$  13.06$
  Q  0.6645  2.83$  15.57$  13.96$
  Q  -1.3290  2.63$  15.83$  13.23$
  Q  0.6645  8.42$  9.47$  15.56$
  Q  0.6645  8.39$  8.09$  14.74$
  Q  -1.3290  8.53$  8.63$  15.41$
  Q  0.6645  3.43$  15.6$  2.32$
  Q  0.6645  4.96$  15.62$  2.39$
  Q  -1.3290  4.18$  15.32$  2.57$
  Q  0.6645  12.01$  13.49$  4.42$
  Q  0.6645  13.44$  13.15$  3.87$
  Q  -1.3290  12.73$  13.57$  3.92$
  Q  0.6645  8.06$  9.87$  19.02$
  Q  0.6645  7.79$  11.48$  19.37$
  Q  -1.3290  7.87$  10.74$  18.91$
  Q  0.6645  5.45$  17.51$  15.93$
  Q  0.6645  3.79$  17.38$  16.23$
  Q  -1.3290  4.57$  17.73$  16.04$
  Q  0.6645  19.18$  12.28$  16.14$
  Q  0.6645  20.43$  12.99$  16.5$
  Q  -1.3290  19.83$  12.42$  16.61$
  Q  0.6645  0.54$  7.78$  12.33$
  Q  0.6645  0.81$  8.67$  11.08$
  Q  -1.3290  1$  8.29$  11.81$
  Q  0.6645  10.52$  15.41$  5.04$
  Q  0.6645  9.11$  15.02$  4.83$
  Q  -1.3290  9.88$  14.88$  4.99$
  Q  0.6645  13.58$  13.14$  0.85$
  Q  0.6645  14.3$  13.85$  -0.22$
  Q  -1.3290  14.02$  13.16$  0.14$
  Q  0.6645  16.07$  7.92$  7.82$
  Q  0.6645  17.26$  8.58$  8.32$
  Q  -1.3290  16.63$  8.48$  7.81$
  Q  0.6645  8.56$  3.96$  14$
  Q  0.6645  8.79$  3.74$  12.52$
  Q  -1.3290  8.35$  3.7$  13.23$
  Q  0.6645  5.14$  3.52$  11.65$
  Q  0.6645  6.48$  3.55$  12.43$
  Q  -1.3290  5.64$  3.57$  12.36$
  Q  0.6645  11.29$  19.49$  8.47$
  Q  0.6645  10.27$  19.67$  9.61$
  Q  -1.3290  10.56$  19.72$  8.82$
  Q  0.6645  4.9$  3.34$  9.01$
  Q  0.6645  3.71$  2.94$  9.86$
  Q  -1.3290  4.51$  3.16$  9.72$
  Q  0.6645  16.61$  5.54$  16.31$
  Q  0.6645  16.37$  5.88$  17.87$
  Q  -1.3290  16.41$  6.02$  17.03$
  Q  0.6645  13.79$  4.74$  10.63$
  Q  0.6645  13.19$  3.97$  11.91$
  Q  -1.3290  13.76$  4.39$  11.42$
  Q  0.6645  11.14$  5.22$  1.46$
  Q  0.6645  11.75$  3.81$  1.81$
  Q  -1.3290  11.23$  4.37$  1.43$
  Q  0.6645  3.33$  13.61$  15.71$
  Q  0.6645  4.62$  14.59$  15.89$
  Q  -1.3290  3.78$  14.36$  15.85$
  Q  0.6645  8.91$  11.48$  17.6$
  Q  0.6645  9.43$  11.64$  16.05$
  Q  -1.3290  9.46$  11.7$  16.95$
  Q  0.6645  15.38$  11.29$  4.4$
  Q  0.6645  15.85$  12.32$  3.38$
  Q  -1.3290  15.29$  11.84$  3.79$
  Q  0.6645  7.93$  7.98$  20.44$
  Q  0.6645  9.43$  8.26$  20.06$
  Q  -1.3290  8.59$  8.32$  20.01$
  Q  0.6645  4.96$  13.51$  17.75$
  Q  0.6645  5.76$  14.43$  18.68$
  Q  -1.3290  5.08$  14.01$  18.38$
  Q  0.6645  2.5$  13.71$  8.99$
  Q  0.6645  1.5$  12.81$  8.25$
  Q  -1.3290  2.21$  12.97$  8.67$
  Q  0.6645  7.68$  7.85$  6.86$
  Q  0.6645  7.42$  8.95$  5.83$
  Q  -1.3290  7.22$  8.26$  6.28$
  Q  0.6645  16.49$  9.15$  18.63$
  Q  0.6645  15.53$  8.4$  19.51$
  Q  -1.3290  15.86$  9.09$  19.17$
  Q  0.6645  14.61$  7.9$  1.9$
  Q  0.6645  13.34$  7.22$  1.75$
  Q  -1.3290  14.15$  7.31$  1.61$
  Q  0.6645  21.47$  14.79$  9.46$
  Q  0.6645  22.23$  13.61$  10.2$
  Q  -1.3290  21.65$  13.97$  9.66$
  Q  0.6645  16.13$  2.28$  9.93$
  Q  0.6645  15.3$  2.97$  11.01$
  Q  -1.3290  15.61$  2.3$  10.59$
  Q  0.6645  5.74$  9.79$  2.54$
  Q  0.6645  4.99$  11.12$  2.77$
  Q  -1.3290  5.66$  10.63$  2.64$
  Q  0.6645  14.75$  14.42$  18.21$
  Q  0.6645  15.61$  15.72$  18.08$
  Q  -1.3290  15.31$  15.02$  18.47$
  Q  0.6645  15.2$  15.96$  5.76$
  Q  0.6645  16.63$  15.84$  5.66$
  Q  -1.3290  15.93$  15.92$  6.07$
  Q  0.6645  9.54$  6.78$  6.2$
  Q  0.6645  9.15$  5.5$  6.88$
  Q  -1.3290  9.33$  6.3$  6.86$
  Q  0.6645  3.74$  15.71$  4.58$
  Q  0.6645  3.26$  17.07$  5.25$
  Q  -1.3290  3.42$  16.22$  5.21$
  Q  0.6645  12.84$  21.41$  10.82$
  Q  0.6645  13.86$  22.52$  10.97$
  Q  -1.3290  13.58$  21.7$  11.06$
  Q  0.6645  15.91$  8.67$  12.51$
  Q  0.6645  16.09$  7.3$  13.27$
  Q  -1.3290  15.85$  8.13$  13.2$
  Q  0.6645  3.94$  8.28$  4.35$
  Q  0.6645  3.12$  9.28$  5.13$
  Q  -1.3290  3.26$  8.73$  4.54$
  Q  0.6645  13.21$  3.25$  3.78$
  Q  0.6645  14.07$  3.93$  2.78$
  Q  -1.3290  13.47$  3.89$  3.33$
  Q  0.6645  8.94$  3.23$  16.76$
  Q  0.6645  8.52$  4.65$  16.49$
  Q  -1.3290  8.55$  3.84$  16.31$
  Q  0.6645  11.34$  7.24$  0.36$
  Q  0.6645  10.68$  7.68$  1.67$
  Q  -1.3290  11.19$  7.21$  1.18$
  Q  0.6645  10.07$  19.05$  12.01$
  Q  0.6645  10$  17.97$  10.87$
  Q  -1.3290  10.31$  18.65$  11.26$
  Q  0.6645  3.02$  8.12$  12.68$
  Q  0.6645  3.27$  7.64$  14.02$
  Q  -1.3290  3.53$  7.93$  13.28$
  Q  0.6645  4.14$  5.36$  9.74$
  Q  0.6645  3.95$  6.92$  10.08$
  Q  -1.3290  3.86$  6.07$  10.2$
  Q  0.6645  13.64$  17.3$  16.19$
  Q  0.6645  12.56$  16.76$  17.07$
  Q  -1.3290  12.82$  17.21$  16.42$
  Q  0.6645  9.89$  18.05$  16.97$
  Q  0.6645  8.8$  17.09$  16.54$
  Q  -1.3290  9.35$  17.43$  17.06$
  Q  0.6645  1.7$  11.5$  12.71$
  Q  0.6645  1.94$  9.93$  12.78$
  Q  -1.3290  2.17$  10.79$  12.79$
  Q  0.6645  11.11$  5.37$  5.45$
  Q  0.6645  10.33$  4.04$  4.97$
  Q  -1.3290  10.78$  4.54$  5.52$
  Q  0.6645  17.22$  7.64$  5.51$
  Q  0.6645  17.26$  8.36$  4.21$
  Q  -1.3290  17.1$  7.71$  4.7$
  Q  0.6645  2.56$  11.74$  14.49$
  Q  0.6645  2.18$  11.91$  16$
  Q  -1.3290  2.15$  12.08$  15.17$
  Q  0.6645  10.87$  14.7$  21.62$
  Q  0.6645  11.23$  13.8$  20.48$
  Q  -1.3290  10.72$  14.26$  20.92$
  Q  0.6645  5$  6.48$  3.84$
  Q  0.6645  5.99$  6.98$  4.86$
  Q  -1.3290  5.22$  6.9$  4.53$
  Q  0.6645  10$  16.34$  13.7$
  Q  0.6645  9.2$  15.77$  14.93$
  Q  -1.3290  9.39$  15.88$  14.1$
  Q  0.6645  5.49$  16.41$  8.18$
  Q  0.6645  4.56$  16.23$  6.97$
  Q  -1.3290  4.87$  16.61$  7.68$
  Q  0.6645  15.87$  4.09$  15.04$
  Q  0.6645  17.27$  3.56$  15.16$
  Q  -1.3290  16.7$  4.16$  15.04$
  Q  0.6645  13.5$  4.42$  8.28$
  Q  0.6645  12.85$  5.9$  8.71$
  Q  -1.3290  13.42$  5.18$  8.72$
  Q  0.6645  12.44$  7.65$  20.36$
  Q  0.6645  11.49$  8.47$  19.45$
  Q  -1.3290  11.68$  7.9$  20.07$
  Q  0.6645  19.25$  8.84$  9.03$
  Q  0.6645  18.87$  10.37$  8.82$
  Q  -1.3290  18.79$  9.56$  9.15$
  Q  0.6645  6.55$  18.87$  13.31$
  Q  0.6645  8.05$  18.79$  13.6$
  Q  -1.3290  7.28$  18.47$  13.38$
  Q  0.6645  17.36$  7.73$  16.92$
  Q  0.6645  17.75$  8.95$  16.19$
  Q  -1.3290  17.57$  8.53$  16.88$
  Q  0.6645  4.67$  10.51$  17.71$
  Q  0.6645  6.19$  10.6$  17.53$
  Q  -1.3290  5.39$  10.41$  17.28$
  Q  0.6645  17.81$  16.7$  9.55$
  Q  0.6645  18.07$  17.72$  8.41$
  Q  -1.3290  18.18$  17.01$  8.81$
  Q  0.6645  13.88$  3.05$  6.81$
  Q  0.6645  12.37$  3.66$  6.49$
  Q  -1.3290  13.05$  3.28$  6.96$
  Q  0.6645  21.38$  10.17$  13.08$
  Q  0.6645  21.64$  10.41$  14.6$
  Q  -1.3290  21.17$  10.26$  13.91$
  Q  0.6645  9.08$  1.63$  13.94$
  Q  0.6645  10.44$  2.22$  14.27$
  Q  -1.3290  9.86$  1.6$  14.22$
  Q  0.6645  4.64$  4.64$  1.71$
  Q  0.6645  5.91$  4.97$  2.55$
  Q  -1.3290  5.08$  4.96$  2.36$
  Q  0.6645  5.1$  8.1$  17.34$
  Q  0.6645  4.57$  6.62$  17.31$
  Q  -1.3290  4.94$  7.31$  17.63$
  Q  0.6645  2.08$  9.35$  9.27$
  Q  0.6645  1.16$  9.68$  8.01$
  Q  -1.3290  1.4$  9.67$  8.85$
  Q  0.6645  14.87$  2.94$  16.87$
  Q  0.6645  14.17$  4.31$  16.54$
  Q  -1.3290  14.45$  3.51$  16.39$
  Q  0.6645  7.32$  16.44$  5.12$
  Q  0.6645  6.67$  15.15$  4.93$
  Q  -1.3290  7.13$  15.79$  4.67$
  Q  0.6645  7.85$  18.69$  10.3$
  Q  0.6645  7.31$  19.76$  9.2$
  Q  -1.3290  7.54$  19.45$  10.01$
  Q  0.6645  20.55$  6.56$  13.5$
  Q  0.6645  21.82$  5.83$  12.92$
  Q  -1.3290  21.07$  6.25$  12.87$
  Q  0.6645  4.8$  19.94$  7.57$
  Q  0.6645  4.11$  18.56$  7.66$
  Q  -1.3290  4.17$  19.37$  7.49$
  Q  0.6645  8.91$  2.44$  3.53$
  Q  0.6645  9.67$  3.55$  2.76$
  Q  -1.3290  9.22$  3.24$  3.39$
  Q  0.6645  12.03$  7.66$  16$
  Q  0.6645  10.53$  7.94$  15.59$
  Q  -1.3290  11.27$  7.51$  15.59$
  Q  0.6645  5.62$  11.68$  13.76$
  Q  0.6645  4.94$  12.75$  12.8$
  Q  -1.3290  5.52$  12.43$  13.33$
  Q  0.6645  12.26$  1.59$  6.44$
  Q  0.6645  11.18$  0.57$  6.23$
  Q  -1.3290  11.84$  1$  6$
  Q  0.6645  6.98$  6.82$  17.54$
  Q  0.6645  8.29$  7.17$  16.88$
  Q  -1.3290  7.76$  6.65$  17.28$
  Q  0.6645  13.04$  6.03$  17.81$
  Q  0.6645  14.39$  6.44$  17.17$
  Q  -1.3290  13.62$  6.13$  17.19$
  Q  0.6645  5.57$  13.21$  5.06$
  Q  0.6645  6.97$  12.93$  5.61$
  Q  -1.3290  6.19$  13.22$  5.64$
  Q  0.6645  9.2$  20.85$  13.32$
  Q  0.6645  9.87$  19.75$  14.29$
  Q  -1.3290  9.5$  20.09$  13.57$
  Q  0.6645  17.55$  14.95$  15.72$
  Q  0.6645  18.4$  15.4$  14.62$
  Q  -1.3290  17.68$  15.16$  14.93$
  Q  0.6645  19.45$  5.71$  11.84$
  Q  0.6645  17.9$  5.76$  11.92$
  Q  -1.3290  18.67$  5.81$  11.52$
  Q  0.6645  12.37$  14.69$  18.39$
  Q  0.6645  11$  15.19$  17.76$
  Q  -1.3290  11.73$  15.27$  18.24$
  Q  0.6645  4.48$  15.84$  12.23$
  Q  0.6645  5.83$  15.47$  11.79$
  Q  -1.3290  5.07$  15.75$  11.67$
  Q  0.6645  3.03$  18.52$  10.41$
  Q  0.6645  1.54$  19.02$  10.32$
  Q  -1.3290  2.19$  18.46$  10.2$
  Q  0.6645  12.76$  15.04$  10.22$
  Q  0.6645  12.35$  15.03$  11.71$
  Q  -1.3290  12.26$  15.18$  10.89$
  Q  0.6645  12.22$  18.2$  7.14$
  Q  0.6645  12.37$  19.4$  5.92$
  Q  -1.3290  12.42$  19$  6.74$
  Q  0.6645  19.46$  6.54$  9.55$
  Q  0.6645  19.38$  6.65$  8.03$
  Q  -1.3290  19.58$  6.9$  8.82$
  Q  0.6645  10.08$  0.71$  11.54$
  Q  0.6645  11$  1.21$  10.3$
  Q  -1.3290  10.83$  0.91$  11.1$
  Q  0.6645  6.79$  13.58$  1.47$
  Q  0.6645  6.08$  12.19$  1.51$
  Q  -1.3290  6.24$  12.99$  1.23$
  Q  0.6645  9.1$  14.63$  17.47$
  Q  0.6645  9.93$  13.63$  16.71$
  Q  -1.3290  9.51$  14.36$  16.79$
  Q  0.6645  7.98$  17.15$  11.77$
  Q  0.6645  8.19$  16$  10.92$
  Q  -1.3290  8.18$  16.81$  11.06$
  Q  0.6645  15$  5.6$  7.88$
  Q  0.6645  15.69$  5.39$  6.55$
  Q  -1.3290  15.65$  5.67$  7.34$
  Q  0.6645  3.74$  10.87$  11.78$
  Q  0.6645  3.73$  11.53$  10.51$
  Q  -1.3290  4.11$  11.16$  11.13$
  Q  0.6645  4.16$  9.04$  8.86$
  Q  0.6645  4.18$  9.36$  10.43$
  Q  -1.3290  3.97$  8.91$  9.72$
  Q  0.6645  10.98$  10.62$  17.46$
  Q  0.6645  12.45$  10.15$  17.32$
  Q  -1.3290  11.69$  10.22$  17.69$
  Q  0.6645  7.26$  10.27$  4.17$
  Q  0.6645  8.65$  10.73$  4.71$
  Q  -1.3290  8$  10.2$  4.56$
  Q  0.6645  17.07$  14.5$  7.35$
  Q  0.6645  17.42$  13.35$  8.23$
  Q  -1.3290  17.3$  13.7$  7.51$
  Q  0.6645  21.56$  9.3$  16.93$
  Q  0.6645  20.79$  10.7$  16.8$
  Q  -1.3290  21.41$  10.16$  17.04$
  Q  0.6645  14.47$  6.98$  21.25$
  Q  0.6645  14.89$  6.04$  19.95$
  Q  -1.3290  14.58$  6.72$  20.41$
  Q  0.6645  9.6$  9.59$  1.3$
  Q  0.6645  9.13$  9.43$  2.77$
  Q  -1.3290  9.34$  9.17$  1.99$
  Q  0.6645  4.98$  8.96$  14.28$
  Q  0.6645  5.41$  9.82$  15.46$
  Q  -1.3290  5.41$  9.58$  14.64$
  Q  0.6645  10.74$  18.15$  1.93$
  Q  0.6645  11.24$  17.94$  3.4$
  Q  -1.3290  11.29$  18.18$  2.57$
  Q  0.6645  5.25$  17.66$  10.82$
  Q  0.6645  5.61$  19.14$  10.49$
  Q  -1.3290  5.07$  18.5$  10.75$
  Q  0.6645  9.33$  17.86$  4.4$
  Q  0.6645  10.04$  17.65$  5.65$
  Q  -1.3290  9.92$  17.52$  4.85$
*
