! NoMOPrint PrintBasis #MINIPRINT SMALLPRINT LARGEPRINT
! ALLPOP XYZFILE
#! BP86 3-21G   TightSCF
! ENGRAD
! B3LYP NormalPNO PModel #DecontractAux
#! VerySlowConv 
 %maxcore 5000
 %scf  maxiter   500  end 

%pal
    nprocs 32
end

%basis
    NewGTO O    # New basis for oxygen
        "aug-cc-pVTZ"
    end
    NewGTO C    # New basis for carbon
        "aug-cc-pVTZ"
    end
    NewGTO H    # New basis for hydrogen
        "cc-pVTZ"
    end
end

* xyz 0   1
  C  9.58  11.98  9.93  #1
  H  9.09  12.59  10.74  #2
  H  8.84  11.22  9.61  #3
  C  10.93  11.37  10.24  #4
  H  11.4  11.09  9.26  #5
  H  11.66  12.04  10.74  #6
  C  10.79  10.09  11.09  #7
  H  10.14  9.29  10.72  #8
  H  10.31  10.43  12.03  #9
  C  12.12  9.45  11.32  #10
  H  12.96  10.16  11.35  #11
  H  12.38  8.81  10.49  #12
  O  12.27  8.65  12.52  #13
  H  12.51  9.28  13.2  #14
  O  9.74  12.88  8.83  #15
  H  8.83  13.15  8.59  #16
  O  14.06  9.23  8.59  #17
  H  14.37  8.47  8.16  #18
  H  14.72  9.28  9.29  #19
  O  13.13  10.91  14.5  #20
  H  13.49  10.16  15  #21
  H  13  11.56  15.23  #22
  O  6.42  13.55  11.01  #23
  H  6.61  12.62  10.79  #24
  H  7.22  13.97  11.35  #25
  O  10.45  11.08  14.84  #26
  H  10.31  11.85  14.26  #27
  H  11.4  10.82  14.69  #28
  O  9.34  6.7  9.61  #29
  H  9.01  6.98  10.46  #30
  H  9  7.32  8.98  #31
  O  13.16  6.01  13.21  #32
  H  13.49  5.58  12.43  #33
  H  12.74  6.77  12.81  #34
  O  6.36  5.64  9.66  #35
  H  6.68  4.96  10.22  #36
  H  7  6.41  9.58  #37
  O  8.8  9.45  15.98  #38
  H  9.42  10.03  15.52  #39
  H  9.34  8.75  16.37  #40
  O  4.14  14.81  9.93  #41
  H  4.62  15.66  10  #42
  H  4.66  14.18  10.51  #43
  O  13.13  7.91  15.82  #44
  H  12.31  7.66  16.27  #45
  H  13.03  7.41  15  #46
  O  10.95  5.68  7.68  #47
  H  10.43  5.75  8.46  #48
  H  10.37  5.4  6.95  #49
  O  15.11  4.92  15  #50
  H  14.54  5.21  14.28  #51
  H  15.37  5.76  15.42  #52
  O  15.92  11.58  8.49  #53
  H  16.71  11.97  8.9  #54
  H  15.52  11.05  9.17  #55
  O  13.42  4.02  11.03  #56
  H  14.3  4.03  10.59  #57
  H  13.51  3.27  11.6  #58
  O  11.57  13.9  7.33  #59
  H  11.26  13.4  8.06  #60
  H  12.37  14.34  7.68  #61
  O  3.93  11.09  12  #62
  H  3.61  12.02  11.98  #63
  H  4.88  11.3  11.97  #64
  O  15.4  9.99  10.88  #65
  H  15.09  10.44  11.67  #66
  H  16.27  9.64  11  #67
  O  8.53  6.9  12.24  #68
  H  8.34  5.91  12.38  #69
  H  9.28  7.11  12.78  #70
  O  14.75  12.37  13  #71
  H  14.45  12.94  12.27  #72
  H  13.99  11.9  13.47  #73
  O  10.96  3.88  12.64  #74
  H  11.46  3.08  12.82  #75
  H  11.42  4.35  11.87  #76
  O  8.58  8.43  7.62  #77
  H  9.42  8.86  7.4  #78
  H  7.97  8.33  6.87  #79
  O  15.19  6.59  7.39  #80
  H  16.14  6.49  7.65  #81
  H  14.93  5.68  7.63  #82
  O  11.21  8.81  7.59  #83
  H  11.28  7.85  7.79  #84
  H  11.97  9.23  7.99  #85
  O  8.98  15.74  7.44  #86
  H  8.7  16.37  6.82  #87
  H  9.84  15.36  7.15  #88
  O  6.79  10.72  11.09  #89
  H  6.38  10.14  10.38  #90
  H  7.3  10.17  11.71  #91
  O  12.43  12.14  16.61  #92
  H  13.07  12.09  17.3  #93
  H  11.58  11.82  17.01  #94
  O  7.44  13.36  7.14  #95
  H  6.54  13.41  7.53  #96
  H  7.61  14.3  7.11  #97
  O  10.56  13.88  13.58  #98
  H  10.55  14.14  12.65  #99
  H  9.71  14.17  13.8  #100
  O  10.64  15.08  11.05  #101
  H  10.48  15.86  11.65  #102
  H  10.46  15.46  10.18  #103
  Q  0.6645  4.96$  6.66$  10.74$
  Q  0.6645  3.46$  6.43$  11.07$
  Q  -1.3290  4.2$  6.86$  11.04$
  Q  0.6645  7.66$  8.33$  13.13$
  Q  0.6645  7.91$  9.37$  14.17$
  Q  -1.3290  7.74$  9.11$  13.42$
  Q  0.6645  2.66$  13.91$  12.71$
  Q  0.6645  1.95$  13.75$  11.38$
  Q  -1.3290  2.46$  13.51$  12$
  Q  0.6645  9.29$  2.11$  18.16$
  Q  0.6645  10.25$  2.51$  19.31$
  Q  -1.3290  9.65$  2.6$  18.72$
  Q  0.6645  16.77$  5.93$  19.81$
  Q  0.6645  17.58$  5.31$  20.82$
  Q  -1.3290  17.21$  5.29$  20.12$
  Q  0.6645  16.26$  17.99$  7.34$
  Q  0.6645  16.15$  16.73$  8.39$
  Q  -1.3290  15.84$  17.41$  7.84$
  Q  0.6645  6.3$  12.35$  21.96$
  Q  0.6645  7.49$  13.12$  21.5$
  Q  -1.3290  6.72$  12.82$  21.43$
  Q  0.6645  3.27$  12.79$  16.77$
  Q  0.6645  4.4$  13.53$  17.52$
  Q  -1.3290  3.96$  13.29$  16.84$
  Q  0.6645  10.19$  6.3$  19.79$
  Q  0.6645  8.73$  5.94$  19.45$
  Q  -1.3290  9.47$  6.33$  19.35$
  Q  0.6645  9.49$  12.98$  4.55$
  Q  0.6645  10.44$  13.95$  4.21$
  Q  -1.3290  9.82$  13.49$  4.03$
  Q  0.6645  9.92$  17.54$  -0.47$
  Q  0.6645  9.98$  16.78$  0.76$
  Q  -1.3290  9.58$  17.15$  0.16$
  Q  0.6645  2.03$  5.48$  14.67$
  Q  0.6645  3.16$  6.14$  13.92$
  Q  -1.3290  2.37$  6.06$  14.2$
  Q  0.6645  1.75$  6.61$  7.49$
  Q  0.6645  1.51$  7.98$  8.09$
  Q  -1.3290  1.97$  7.39$  7.71$
  Q  0.6645  4.8$  7.47$  3.14$
  Q  0.6645  4.16$  8.25$  4.41$
  Q  -1.3290  4.78$  7.99$  3.87$
  Q  0.6645  6.54$  13.49$  16.88$
  Q  0.6645  6.16$  14.75$  17.57$
  Q  -1.3290  6.63$  14.1$  17.43$
  Q  0.6645  9.36$  12.16$  18.25$
  Q  0.6645  9.43$  10.86$  17.42$
  Q  -1.3290  9.66$  11.4$  18.01$
  Q  0.6645  14.86$  2.14$  16.9$
  Q  0.6645  13.87$  3.4$  16.88$
  Q  -1.3290  14.17$  2.6$  17.1$
  Q  0.6645  6.68$  11.33$  20.04$
  Q  0.6645  6.33$  9.83$  19.73$
  Q  -1.3290  6.67$  10.61$  19.57$
  Q  0.6645  13.57$  17.07$  8.35$
  Q  0.6645  12.37$  16.66$  9.02$
  Q  -1.3290  12.86$  16.66$  8.39$
  Q  0.6645  6.42$  13.23$  2.12$
  Q  0.6645  6.43$  11.69$  2.59$
  Q  -1.3290  6.12$  12.41$  2.18$
  Q  0.6645  12.15$  0.44$  11.28$
  Q  0.6645  11.92$  0.56$  9.75$
  Q  -1.3290  12.17$  0.2$  10.49$
  Q  0.6645  18.18$  10.44$  4.82$
  Q  0.6645  17.24$  10.36$  3.67$
  Q  -1.3290  17.98$  10.5$  4.03$
  Q  0.6645  4.94$  16.54$  17.25$
  Q  0.6645  4.22$  16.73$  18.52$
  Q  -1.3290  4.86$  16.47$  18.11$
  Q  0.6645  4.44$  9.4$  16.29$
  Q  0.6645  3.93$  8.91$  15.02$
  Q  -1.3290  3.84$  9.07$  15.81$
  Q  0.6645  11.9$  14.85$  14.13$
  Q  0.6645  12.36$  16.27$  14.82$
  Q  -1.3290  12.42$  15.44$  14.49$
  Q  0.6645  16.47$  7.48$  16.95$
  Q  0.6645  14.97$  7.83$  16.68$
  Q  -1.3290  15.8$  7.61$  16.47$
  Q  0.6645  5.16$  6.1$  13.11$
  Q  0.6645  5.35$  4.59$  12.92$
  Q  -1.3290  5.27$  5.31$  13.4$
  Q  0.6645  17.36$  6.03$  4.05$
  Q  0.6645  18.77$  6.06$  4.75$
  Q  -1.3290  18$  5.78$  4.54$
  Q  0.6645  14.14$  16.97$  3.03$
  Q  0.6645  13.44$  15.61$  2.93$
  Q  -1.3290  14.02$  16.17$  3.19$
  Q  0.6645  8.89$  3.45$  9.83$
  Q  0.6645  8.46$  2.03$  9.86$
  Q  -1.3290  8.79$  2.68$  9.5$
  Q  0.6645  10.36$  21.3$  9.22$
  Q  0.6645  9.33$  20.11$  9.1$
  Q  -1.3290  9.66$  20.81$  9.42$
  Q  0.6645  17.43$  18.31$  11.88$
  Q  0.6645  16.63$  19.54$  12.22$
  Q  -1.3290  17.18$  19.12$  11.77$
  Q  0.6645  3.13$  14.59$  4.78$
  Q  0.6645  2.66$  14.88$  6.12$
  Q  -1.3290  3.22$  14.8$  5.54$
  Q  0.6645  13.22$  12.29$  19.61$
  Q  0.6645  14.43$  12.73$  18.98$
  Q  -1.3290  13.84$  12.2$  19.09$
  Q  0.6645  1.13$  10.33$  9.11$
  Q  0.6645  0.12$  11.11$  8.22$
  Q  -1.3290  0.42$  10.47$  8.72$
  Q  0.6645  14.1$  19.69$  3.14$
  Q  0.6645  12.95$  19.27$  4.21$
  Q  -1.3290  13.42$  19.23$  3.47$
  Q  0.6645  7.8$  2.38$  7.86$
  Q  0.6645  7.2$  1.61$  6.8$
  Q  -1.3290  7.19$  2.21$  7.32$
  Q  0.6645  7.5$  9.98$  3.72$
  Q  0.6645  6.29$  9.22$  3.12$
  Q  -1.3290  7.05$  9.59$  3.09$
  Q  0.6645  18.76$  4.07$  9.83$
  Q  0.6645  17.72$  3.44$  8.79$
  Q  -1.3290  18.12$  4.05$  9.24$
  Q  0.6645  4.4$  14.03$  8.28$
  Q  0.6645  4.38$  13.78$  6.81$
  Q  -1.3290  4.66$  13.63$  7.58$
  Q  0.6645  14.73$  13.07$  8.31$
  Q  0.6645  14.44$  14.47$  7.58$
  Q  -1.3290  14.37$  13.85$  8.17$
  Q  0.6645  12.73$  21.27$  5.62$
  Q  0.6645  14.03$  20.38$  5.64$
  Q  -1.3290  13.19$  20.53$  5.66$
  Q  0.6645  7.2$  4.14$  16.16$
  Q  0.6645  6.53$  4.84$  14.91$
  Q  -1.3290  7.1$  4.75$  15.55$
  Q  0.6645  10.2$  1.92$  15.55$
  Q  0.6645  9.75$  3.42$  15.37$
  Q  -1.3290  9.66$  2.58$  15.45$
  Q  0.6645  21.65$  10.4$  12.28$
  Q  0.6645  20.96$  10.92$  11.09$
  Q  -1.3290  21.05$  10.86$  11.89$
  Q  0.6645  6.2$  19.75$  9.3$
  Q  0.6645  4.76$  19.85$  8.98$
  Q  -1.3290  5.45$  20.13$  9.34$
  Q  0.6645  1.25$  14.78$  9.32$
  Q  0.6645  0.74$  13.45$  8.69$
  Q  -1.3290  0.86$  14.03$  9.33$
  Q  0.6645  2.53$  10.88$  13.37$
  Q  0.6645  1.13$  11.48$  13.83$
  Q  -1.3290  1.71$  10.9$  13.72$
  Q  0.6645  15.88$  7.8$  2.46$
  Q  0.6645  15.56$  6.58$  3.3$
  Q  -1.3290  16.04$  7.11$  2.9$
  Q  0.6645  9.87$  20.4$  14.75$
  Q  0.6645  8.27$  20.48$  14.72$
  Q  -1.3290  9.05$  20.44$  15.08$
  Q  0.6645  4.14$  18.45$  4.68$
  Q  0.6645  3.68$  19.95$  4.55$
  Q  -1.3290  3.61$  19.11$  4.77$
  Q  0.6645  6.58$  11.55$  15.59$
  Q  0.6645  5.89$  12.56$  14.72$
  Q  -1.3290  6.55$  12.16$  15.06$
  Q  0.6645  13.43$  2.89$  4.48$
  Q  0.6645  12.36$  3.74$  3.56$
  Q  -1.3290  12.75$  3.42$  4.25$
  Q  0.6645  10.19$  9.44$  4.67$
  Q  0.6645  10.91$  10$  5.94$
  Q  -1.3290  10.6$  10.01$  5.15$
  Q  0.6645  3.94$  19.33$  12.09$
  Q  0.6645  4.22$  18.12$  12.92$
  Q  -1.3290  4.42$  18.86$  12.6$
  Q  0.6645  18.27$  15.78$  8.65$
  Q  0.6645  17.49$  15.96$  9.98$
  Q  -1.3290  17.59$  15.72$  9.17$
  Q  0.6645  15.61$  11.5$  4.22$
  Q  0.6645  15.47$  11.01$  2.78$
  Q  -1.3290  15.43$  10.95$  3.63$
  Q  0.6645  10.13$  1.68$  8.45$
  Q  0.6645  10.98$  1.24$  7.25$
  Q  -1.3290  10.63$  1.15$  8.02$
  Q  0.6645  0.17$  12.77$  6.28$
  Q  0.6645  1.62$  12.06$  6.76$
  Q  -1.3290  0.86$  12.53$  6.79$
  Q  0.6645  5.17$  9.12$  13.48$
  Q  0.6645  4.25$  8.25$  12.68$
  Q  -1.3290  4.57$  8.55$  13.39$
  Q  0.6645  15.64$  7.58$  20.34$
  Q  0.6645  16.29$  7.84$  19.06$
  Q  -1.3290  15.73$  7.47$  19.57$
  Q  0.6645  12.09$  17.2$  6.56$
  Q  0.6645  12.01$  16.68$  5.18$
  Q  -1.3290  11.89$  17.24$  5.75$
  Q  0.6645  9.21$  20.99$  11.48$
  Q  0.6645  8.38$  20.32$  12.39$
  Q  -1.3290  8.82$  20.93$  12.16$
  Q  0.6645  6.3$  5.01$  3.7$
  Q  0.6645  6.89$  3.59$  4.04$
  Q  -1.3290  6.95$  4.41$  3.88$
  Q  0.6645  5.36$  8.74$  8.72$
  Q  0.6645  6.88$  8.76$  8.48$
  Q  -1.3290  6.16$  8.67$  8.93$
  Q  0.6645  17.87$  9.96$  20.06$
  Q  0.6645  17.63$  10.24$  21.54$
  Q  -1.3290  17.89$  9.8$  20.89$
  Q  0.6645  15.45$  13.18$  5.85$
  Q  0.6645  16.13$  12.22$  6.65$
  Q  -1.3290  15.99$  12.58$  5.94$
  Q  0.6645  19.9$  9.44$  15.48$
  Q  0.6645  20.08$  10.51$  16.64$
  Q  -1.3290  20.26$  10.11$  15.88$
  Q  0.6645  7.81$  11.85$  5.76$
  Q  0.6645  8.94$  10.9$  5.42$
  Q  -1.3290  8.22$  11.36$  5.29$
  Q  0.6645  11.91$  4.3$  16.19$
  Q  0.6645  13.16$  5.22$  15.92$
  Q  -1.3290  12.53$  4.85$  16.36$
  Q  0.6645  9.5$  13.96$  20.91$
  Q  0.6645  8.82$  14.97$  21.59$
  Q  -1.3290  9.14$  14.25$  21.58$
  Q  0.6645  17.99$  13.79$  9.48$
  Q  0.6645  18.02$  12.57$  10.44$
  Q  -1.3290  18.13$  13.01$  9.72$
  Q  0.6645  2.97$  9.78$  5.98$
  Q  0.6645  2.66$  8.27$  6.13$
  Q  -1.3290  2.7$  9.01$  5.7$
  Q  0.6645  17.42$  14.88$  3.88$
  Q  0.6645  17.23$  14.07$  5.16$
  Q  -1.3290  17.66$  14.54$  4.64$
  Q  0.6645  12.76$  1.48$  13.77$
  Q  0.6645  13.73$  0.92$  12.75$
  Q  -1.3290  13.08$  1.37$  13.01$
  Q  0.6645  9.76$  19.62$  4.67$
  Q  0.6645  10.28$  18.59$  5.64$
  Q  -1.3290  9.75$  19.19$  5.4$
  Q  0.6645  8.52$  9.91$  20.31$
  Q  0.6645  9.87$  9.09$  20.15$
  Q  -1.3290  9.18$  9.39$  20.55$
  Q  0.6645  7.27$  8.03$  1.5$
  Q  0.6645  8.08$  7.77$  0.28$
  Q  -1.3290  7.4$  7.78$  0.71$
  Q  0.6645  11.25$  15.29$  2.04$
  Q  0.6645  10.58$  16.36$  2.93$
  Q  -1.3290  11.11$  16.06$  2.34$
  Q  0.6645  4.45$  3.76$  10.75$
  Q  0.6645  5.61$  2.74$  10.92$
  Q  -1.3290  5.09$  3.41$  11.14$
  Q  0.6645  17.77$  6.25$  6.5$
  Q  0.6645  18.47$  5.74$  7.77$
  Q  -1.3290  18.14$  6.33$  7.28$
  Q  0.6645  7$  9.76$  16.6$
  Q  0.6645  6$  10.39$  17.6$
  Q  -1.3290  6.25$  10.05$  16.86$
  Q  0.6645  12.22$  9.67$  19.7$
  Q  0.6645  12.37$  8.22$  19.94$
  Q  -1.3290  12.1$  8.97$  20.11$
  Q  0.6645  15.77$  9.67$  0.83$
  Q  0.6645  14.27$  9.23$  1.09$
  Q  -1.3290  15.1$  9.13$  0.89$
  Q  0.6645  3.38$  11.09$  2.81$
  Q  0.6645  4.31$  11.09$  1.64$
  Q  -1.3290  3.69$  10.81$  2.1$
  Q  0.6645  12.02$  13.85$  16.72$
  Q  0.6645  11.21$  15.08$  16.26$
  Q  -1.3290  11.56$  14.59$  16.84$
  Q  0.6645  6.23$  0.58$  9.85$
  Q  0.6645  6.28$  0.9$  11.36$
  Q  -1.3290  6.43$  1.05$  10.54$
  Q  0.6645  8.43$  4.74$  5.22$
  Q  0.6645  9.35$  5.88$  4.89$
  Q  -1.3290  9.13$  5.17$  5.28$
  Q  0.6645  6.07$  4.08$  6.46$
  Q  0.6645  4.87$  4.85$  6.99$
  Q  -1.3290  5.49$  4.65$  6.43$
  Q  0.6645  3.24$  11.9$  5.43$
  Q  0.6645  3.78$  11.97$  6.84$
  Q  -1.3290  3.34$  11.64$  6.21$
  Q  0.6645  14.03$  18.59$  14.99$
  Q  0.6645  12.6$  18.87$  14.66$
  Q  -1.3290  13.22$  18.49$  15.05$
  Q  0.6645  6.5$  17.48$  5.3$
  Q  0.6645  7.77$  18.22$  5.41$
  Q  -1.3290  7.25$  17.62$  5.62$
  Q  0.6645  14.46$  18.85$  8.28$
  Q  0.6645  13.45$  19.74$  7.54$
  Q  -1.3290  13.81$  19.39$  8.21$
  Q  0.6645  20.36$  9.03$  8.64$
  Q  0.6645  19.83$  7.62$  8.22$
  Q  -1.3290  19.91$  8.29$  8.76$
  Q  0.6645  2.51$  10.75$  16.15$
  Q  0.6645  2.02$  11.01$  17.66$
  Q  -1.3290  2.17$  11.19$  16.83$
  Q  0.6645  14.15$  16.09$  13.5$
  Q  0.6645  14.51$  16.1$  12.05$
  Q  -1.3290  14.51$  16.39$  12.82$
  Q  0.6645  15.75$  13.17$  14.32$
  Q  0.6645  16.18$  14.32$  15.25$
  Q  -1.3290  16.29$  13.62$  14.78$
  Q  0.6645  6.82$  20.34$  3.3$
  Q  0.6645  6.6$  21.62$  4.22$
  Q  -1.3290  6.94$  20.85$  3.99$
  Q  0.6645  3.22$  15.68$  2.54$
  Q  0.6645  4.51$  14.73$  2.34$
  Q  -1.3290  3.65$  14.95$  2.41$
  Q  0.6645  20.44$  5.61$  11.14$
  Q  0.6645  20.35$  4.29$  11.85$
  Q  -1.3290  20.13$  4.85$  11.27$
  Q  0.6645  6.53$  17.5$  9.21$
  Q  0.6645  5.35$  17.93$  10.13$
  Q  -1.3290  6.01$  17.48$  9.86$
  Q  0.6645  8.97$  5.31$  15.16$
  Q  0.6645  10.16$  5.08$  13.99$
  Q  -1.3290  9.74$  5.34$  14.73$
  Q  0.6645  12.71$  1.69$  16.26$
  Q  0.6645  11.82$  0.35$  16.24$
  Q  -1.3290  12.15$  1.1$  15.91$
  Q  0.6645  13.78$  6.43$  19.39$
  Q  0.6645  12.68$  6.03$  18.45$
  Q  -1.3290  12.97$  6.3$  19.19$
  Q  0.6645  5.14$  4.91$  18.21$
  Q  0.6645  5.69$  5.73$  17.11$
  Q  -1.3290  5.07$  5.42$  17.55$
  Q  0.6645  5.3$  17.13$  14.26$
  Q  0.6645  6.03$  17.11$  12.89$
  Q  -1.3290  5.79$  16.78$  13.6$
  Q  0.6645  12.33$  13.46$  4.23$
  Q  0.6645  11.94$  14.07$  5.6$
  Q  -1.3290  12.13$  14.08$  4.76$
  Q  0.6645  2.4$  19.62$  8.01$
  Q  0.6645  3.24$  19.38$  6.79$
  Q  -1.3290  3.08$  19.36$  7.61$
  Q  0.6645  7.98$  1.77$  14.13$
  Q  0.6645  8.16$  1.01$  12.87$
  Q  -1.3290  7.72$  1.47$  13.39$
  Q  0.6645  15.31$  10.65$  19.27$
  Q  0.6645  16.51$  10.95$  18.24$
  Q  -1.3290  16.07$  10.56$  18.9$
  Q  0.6645  16.73$  11.71$  12.39$
  Q  0.6645  18.14$  12.23$  12.76$
  Q  -1.3290  17.57$  11.85$  12.28$
  Q  0.6645  18.21$  9.06$  11.35$
  Q  0.6645  18.43$  8.43$  10.01$
  Q  -1.3290  17.96$  8.62$  10.7$
  Q  0.6645  20.1$  14.85$  11.74$
  Q  0.6645  21.04$  14.68$  10.47$
  Q  -1.3290  20.46$  15.07$  10.99$
  Q  0.6645  8.92$  21.85$  7.54$
  Q  0.6645  8.65$  20.92$  6.21$
  Q  -1.3290  8.44$  21.42$  6.92$
  Q  0.6645  6.39$  15.09$  1.17$
  Q  0.6645  7.35$  15.39$  2.24$
  Q  -1.3290  6.61$  15.14$  1.97$
  Q  0.6645  5.75$  20.25$  13.53$
  Q  0.6645  6.33$  21.52$  14.34$
  Q  -1.3290  6.07$  20.7$  14.19$
  Q  0.6645  15.58$  -0.12$  9.58$
  Q  0.6645  14.11$  0.29$  10.02$
  Q  -1.3290  14.97$  0.31$  9.99$
  Q  0.6645  16.93$  10.14$  7.16$
  Q  0.6645  16.9$  9.19$  6$
  Q  -1.3290  17.26$  9.74$  6.5$
  Q  0.6645  15.1$  14.69$  19.45$
  Q  0.6645  15.32$  14.04$  17.99$
  Q  -1.3290  15.45$  14.16$  18.86$
  Q  0.6645  16.31$  3.33$  14.89$
  Q  0.6645  17.28$  2.93$  16.18$
  Q  -1.3290  16.78$  2.83$  15.46$
  Q  0.6645  1.34$  8.93$  13.18$
  Q  0.6645  0.72$  7.51$  13.53$
  Q  -1.3290  0.83$  8.28$  13.13$
  Q  0.6645  12.86$  3.78$  6.66$
  Q  0.6645  12.67$  4.78$  7.77$
  Q  -1.3290  13.1$  4.21$  7.32$
  Q  0.6645  7.22$  17.9$  11.5$
  Q  0.6645  8.42$  17.8$  12.45$
  Q  -1.3290  7.82$  18.18$  12.04$
  Q  0.6645  6.67$  6.5$  6.22$
  Q  0.6645  6.32$  7.47$  5.07$
  Q  -1.3290  6.79$  7.19$  5.68$
  Q  0.6645  7.79$  14.01$  14.91$
  Q  0.6645  7.21$  15.32$  14.24$
  Q  -1.3290  7.82$  14.73$  14.45$
  Q  0.6645  22.15$  7.85$  11.27$
  Q  0.6645  21.01$  7.57$  10.26$
  Q  -1.3290  21.69$  7.39$  10.73$
  Q  0.6645  2.09$  17.2$  10.6$
  Q  0.6645  2.96$  16.09$  11.12$
  Q  -1.3290  2.62$  16.86$  11.13$
  Q  0.6645  12.74$  16$  17.55$
  Q  0.6645  13.53$  17.28$  17.15$
  Q  -1.3290  12.95$  16.82$  17.58$
  Q  0.6645  8.96$  16.04$  15.41$
  Q  0.6645  9.53$  17.27$  16.2$
  Q  -1.3290  9.5$  16.63$  15.64$
  Q  0.6645  11.53$  11.87$  21.41$
  Q  0.6645  10.74$  11.73$  19.94$
  Q  -1.3290  11.3$  12.05$  20.54$
  Q  0.6645  8.97$  19.43$  16.48$
  Q  0.6645  8.26$  19.35$  17.85$
  Q  -1.3290  8.9$  19.21$  17.32$
  Q  0.6645  4.74$  15.03$  13.7$
  Q  0.6645  4.21$  14.18$  15.01$
  Q  -1.3290  4.31$  14.42$  14.14$
  Q  0.6645  20.19$  12.07$  13.37$
  Q  0.6645  19.48$  11.7$  14.59$
  Q  -1.3290  19.75$  12.23$  14.04$
  Q  0.6645  12.79$  14.75$  11.37$
  Q  0.6645  13.63$  14.49$  10.19$
  Q  -1.3290  13.5$  14.74$  10.96$
  Q  0.6645  5.43$  17.89$  3.11$
  Q  0.6645  5.13$  16.39$  3.42$
  Q  -1.3290  5.27$  17.23$  3.59$
  Q  0.6645  14.62$  3.12$  8.05$
  Q  0.6645  15.28$  2.03$  9.09$
  Q  -1.3290  15.25$  2.67$  8.46$
  Q  0.6645  9.16$  4.15$  12.07$
  Q  0.6645  7.87$  3.41$  12.22$
  Q  -1.3290  8.35$  4.03$  11.94$
  Q  0.6645  16.78$  6.46$  11.87$
  Q  0.6645  17.65$  5.18$  11.92$
  Q  -1.3290  17.1$  5.74$  12.19$
  Q  0.6645  11.78$  11.15$  4.12$
  Q  0.6645  13.22$  11.13$  3.91$
  Q  -1.3290  12.48$  11.43$  3.81$
  Q  0.6645  12.72$  18.98$  11.16$
  Q  0.6645  13.64$  18.3$  12.31$
  Q  -1.3290  13.1$  18.88$  11.94$
  Q  0.6645  18.33$  8.76$  18.05$
  Q  0.6645  18.61$  7.23$  18.14$
  Q  -1.3290  18.12$  7.93$  18.05$
  Q  0.6645  19.88$  11.09$  18.75$
  Q  0.6645  20.43$  9.74$  18.68$
  Q  -1.3290  19.85$  10.29$  18.53$
  Q  0.6645  16.71$  12.31$  15.97$
  Q  0.6645  16.65$  10.77$  15.91$
  Q  -1.3290  16.73$  11.52$  16.29$
  Q  0.6645  10.09$  7.84$  1.93$
  Q  0.6645  10.41$  6.33$  1.71$
  Q  -1.3290  9.96$  6.98$  1.98$
  Q  0.6645  20.96$  4.5$  14.41$
  Q  0.6645  20.09$  5.6$  15.16$
  Q  -1.3290  20.81$  5.18$  14.89$
  Q  0.6645  13.26$  12.93$  0.7$
  Q  0.6645  14.49$  13.9$  0.19$
  Q  -1.3290  14.05$  13.17$  0.34$
  Q  0.6645  8.43$  14.15$  18.19$
  Q  0.6645  9.87$  14.42$  18.19$
  Q  -1.3290  9.18$  14.15$  18.53$
  Q  0.6645  2.84$  13.22$  3.35$
  Q  0.6645  1.55$  12.43$  3.69$
  Q  -1.3290  2.38$  12.66$  3.76$
  Q  0.6645  14.16$  15.19$  16.14$
  Q  0.6645  15.31$  15.7$  17.12$
  Q  -1.3290  14.87$  15.12$  16.62$
  Q  0.6645  17.66$  5.46$  14.43$
  Q  0.6645  17.57$  6.4$  15.63$
  Q  -1.3290  17.96$  5.95$  15.05$
  Q  0.6645  12.85$  4.74$  20.34$
  Q  0.6645  13.96$  3.78$  20.56$
  Q  -1.3290  13.2$  4.11$  20.71$
  Q  0.6645  9.12$  15.26$  3.55$
  Q  0.6645  8.13$  16.37$  3.85$
  Q  -1.3290  8.72$  15.99$  3.4$
  Q  0.6645  11.52$  15.51$  19.33$
  Q  0.6645  12.03$  14.29$  20.2$
  Q  -1.3290  11.95$  15.12$  19.97$
  Q  0.6645  12.27$  8.8$  0.22$
  Q  0.6645  11.7$  9.58$  1.37$
  Q  -1.3290  12.27$  9.11$  0.99$
  Q  0.6645  8.72$  7.92$  4.84$
  Q  0.6645  9.52$  7.37$  3.76$
  Q  -1.3290  9.38$  7.8$  4.43$
  Q  0.6645  11.93$  19.09$  8.97$
  Q  0.6645  10.67$  19.15$  9.95$
  Q  -1.3290  11.3$  18.82$  9.5$
  Q  0.6645  9.55$  10.03$  0.64$
  Q  0.6645  8.86$  9.76$  1.87$
  Q  -1.3290  9.51$  9.94$  1.45$
  Q  0.6645  18.93$  10.65$  7.3$
  Q  0.6645  19.37$  11.64$  8.37$
  Q  -1.3290  19.42$  11.25$  7.63$
  Q  0.6645  5.11$  5.14$  8.78$
  Q  0.6645  3.56$  5.22$  8.94$
  Q  -1.3290  4.25$  4.9$  8.56$
  Q  0.6645  17.24$  9.69$  14.29$
  Q  0.6645  16.33$  9.07$  15.38$
  Q  -1.3290  16.51$  9.53$  14.69$
  Q  0.6645  18.39$  8$  13.49$
  Q  0.6645  19.67$  8.85$  13.32$
  Q  -1.3290  18.88$  8.69$  13.56$
  Q  0.6645  4.1$  18.08$  16.16$
  Q  0.6645  3.14$  17.2$  15.42$
  Q  -1.3290  3.87$  17.36$  15.79$
  Q  0.6645  10.66$  13.36$  0.98$
  Q  0.6645  11.2$  12.89$  2.21$
  Q  -1.3290  11.28$  13.2$  1.47$
  Q  0.6645  10.73$  0.8$  4.87$
  Q  0.6645  11.66$  2.12$  5.08$
  Q  -1.3290  11.29$  1.36$  5.27$
  Q  0.6645  18.05$  2.29$  6.1$
  Q  0.6645  16.89$  2.3$  7.1$
  Q  -1.3290  17.71$  2.29$  6.86$
  Q  0.6645  10.24$  17.02$  13.77$
  Q  0.6645  11.2$  17.81$  12.84$
  Q  -1.3290  10.52$  17.32$  13.02$
  Q  0.6645  11.81$  20.02$  13.05$
  Q  0.6645  11.94$  21.12$  14.23$
  Q  -1.3290  11.65$  20.41$  13.83$
  Q  0.6645  14.73$  6.23$  5.57$
  Q  0.6645  14.14$  5$  4.76$
  Q  -1.3290  14.59$  5.73$  4.89$
  Q  0.6645  14.44$  15.48$  5.3$
  Q  0.6645  15.39$  16.02$  6.4$
  Q  -1.3290  14.93$  15.42$  5.99$
  Q  0.6645  3.42$  8.74$  10.03$
  Q  0.6645  3.05$  10.18$  10.41$
  Q  -1.3290  2.99$  9.46$  9.96$
  Q  0.6645  2.06$  17.3$  8.05$
  Q  0.6645  1.08$  16.2$  7.81$
  Q  -1.3290  1.53$  16.72$  8.29$
  Q  0.6645  7.6$  18.47$  7.77$
  Q  0.6645  7.78$  19.91$  7.74$
  Q  -1.3290  7.7$  19.16$  8.12$
  Q  0.6645  16.52$  16.38$  12.69$
  Q  0.6645  18.08$  16.07$  12.87$
  Q  -1.3290  17.38$  16.51$  12.63$
  Q  0.6645  19.47$  14.29$  14.02$
  Q  0.6645  20.42$  15.53$  14.27$
  Q  -1.3290  19.76$  15.1$  13.96$
  Q  0.6645  10.29$  6.94$  17.77$
  Q  0.6645  10.75$  6.57$  16.3$
  Q  -1.3290  10.59$  7.08$  16.94$
*
