! NoMOPrint PrintBasis #MINIPRINT SMALLPRINT LARGEPRINT
! ALLPOP XYZFILE
#! BP86 3-21G   TightSCF
! ENGRAD
! B3LYP NormalPNO PModel #DecontractAux
#! VerySlowConv 
 %maxcore 5000
 %scf  maxiter   500  end 

%pal
    nprocs 32
end

%basis
    NewGTO O    # New basis for oxygen
        "aug-cc-pVTZ"
    end
    NewGTO C    # New basis for carbon
        "aug-cc-pVTZ"
    end
    NewGTO H    # New basis for hydrogen
        "cc-pVTZ"
    end
end

* xyz 0   1
  C  9.55  10.28  11.84  #1
  H  8.64  10.93  11.79  #2
  H  10.19  10.67  12.57  #3
  C  10.28  10.1  10.51  #4
  H  11  9.33  10.76  #5
  H  9.68  9.86  9.67  #6
  C  11.08  11.31  9.96  #7
  H  10.42  12.21  9.91  #8
  H  11.19  11.12  8.91  #9
  C  12.38  11.7  10.65  #10
  H  13  10.88  11  #11
  H  12.03  12.1  11.6  #12
  O  13.11  12.74  10.04  #13
  H  13.44  12.42  9.17  #14
  O  9  9.05  12.13  #15
  H  8.34  9.12  12.88  #16
  O  8.21  6.6  10.74  #17
  H  8.35  7.52  10.85  #18
  H  8.55  6.35  9.81  #19
  O  12.8  9.18  12.81  #20
  H  12.57  9.84  13.44  #21
  H  12.3  8.35  13.02  #22
  O  12.07  15.02  9.09  #23
  H  12.61  14.33  9.58  #24
  H  12.61  15.21  8.28  #25
  O  15.12  9.13  11.29  #26
  H  14.92  8.53  10.54  #27
  H  14.3  9.23  11.85  #28
  O  7.34  11.59  8.55  #29
  H  7.6  11.72  7.62  #30
  H  7.79  12.38  8.8  #31
  O  14.51  16.76  8.06  #32
  H  15.29  16.95  7.51  #33
  H  14.7  17.02  8.95  #34
  O  17.33  10.91  10.88  #35
  H  18.12  10.47  11.09  #36
  H  16.64  10.28  11.08  #37
  O  16.96  7.73  12.6  #38
  H  16.14  7.95  12.13  #39
  H  17.65  8.4  12.4  #40
  O  8.22  12.52  6.16  #41
  H  8.18  13.47  6.34  #42
  H  9.17  12.41  6.11  #43
  O  6.29  8.41  13.69  #44
  H  6.31  7.83  12.95  #45
  H  5.53  8.96  13.46  #46
  O  8.61  4.65  12.71  #47
  H  9.2  4.83  13.45  #48
  H  8.4  5.47  12.32  #49
  O  15.18  6.74  9.25  #50
  H  14.46  6.21  9.73  #51
  H  14.84  7.18  8.47  #52
  O  14.51  14.15  6.53  #53
  H  13.6  14.4  6.3  #54
  H  14.83  14.88  7.05  #55
  O  5.87  12.3  13.06  #56
  H  6.63  11.99  13.61  #57
  H  5.47  13.05  13.49  #58
  O  11.39  11.79  6.12  #59
  H  11.49  11.46  5.26  #60
  H  12.31  11.79  6.51  #61
  O  12.3  17.94  6.72  #62
  H  12.41  17.77  5.82  #63
  H  12.97  17.46  7.18  #64
  O  9.01  6.14  8.19  #65
  H  8.56  5.72  7.46  #66
  H  9.82  6.55  7.86  #67
  O  12.99  11.42  14.67  #68
  H  12.8  12.32  14.38  #69
  H  12.97  11.45  15.63  #70
  O  11.09  9.44  15.85  #71
  H  11.86  9.04  15.49  #72
  H  11.01  10.23  15.33  #73
  O  4.47  11.43  7.21  #74
  H  5.26  11.25  7.74  #75
  H  4.15  12.33  7.61  #76
  O  11.35  6.69  12.87  #77
  H  11.4  6.24  13.74  #78
  H  10.52  7.19  12.85  #79
  O  11.84  14.56  6.1  #80
  H  11.56  13.67  5.9  #81
  H  11.87  15.1  5.28  #82
  O  8.37  13.89  9.74  #83
  H  8.61  13.67  10.65  #84
  H  8.81  14.7  9.65  #85
  O  7.94  11.17  14.73  #86
  H  7.55  10.59  15.43  #87
  H  8.61  11.77  15.3  #88
  O  6.85  9.93  5.54  #89
  H  7.27  10.77  5.37  #90
  H  7.33  9.56  6.28  #91
  O  13.9  11.56  6.88  #92
  H  14.53  12.3  6.86  #93
  H  14.41  10.74  6.96  #94
  O  5.79  14.57  7.73  #95
  H  6.05  14.53  6.84  #96
  H  6.46  14.08  8.24  #97
  O  15.69  10.45  14.53  #98
  H  15.74  9.55  14.21  #99
  H  14.78  10.72  14.44  #100
  O  5.75  5.5  12.19  #101
  H  6.26  5.61  11.37  #102
  H  4.91  5.9  12.01  #103
  O  8.47  9.22  7.65  #104
  H  9.4  9.13  7.86  #105
  H  8.2  10.01  8.13  #106
  O  14.47  14.57  11.49  #107
  H  14.18  13.85  10.92  #108
  H  15.39  14.37  11.6  #109
  O  10.5  17.26  9.51  #110
  H  11.03  16.48  9.45  #111
  H  10.92  17.74  8.81  #112
  Q  0.6645  20.31$  11.73$  13.96$
  Q  0.6645  20.6$  13.27$  14.08$
  Q  -1.3290  20.12$  12.57$  14.04$
  Q  0.6645  12.23$  7.55$  21.06$
  Q  0.6645  11.37$  6.52$  20.39$
  Q  -1.3290  12.1$  6.84$  20.66$
  Q  0.6645  4.65$  7.06$  5.46$
  Q  0.6645  4.05$  6.26$  6.62$
  Q  -1.3290  4.67$  6.47$  6.07$
  Q  0.6645  19.68$  7.81$  4.15$
  Q  0.6645  18.51$  7.65$  5.11$
  Q  -1.3290  18.97$  7.46$  4.44$
  Q  0.6645  0.22$  12.75$  6.53$
  Q  0.6645  1.84$  12.79$  6.85$
  Q  -1.3290  1.06$  12.52$  6.52$
  Q  0.6645  9.53$  14.91$  13.38$
  Q  0.6645  10.58$  16$  13.33$
  Q  -1.3290  10.15$  15.37$  13.71$
  Q  0.6645  5.25$  6.53$  1.67$
  Q  0.6645  4.55$  7.51$  2.69$
  Q  -1.3290  4.8$  7.23$  1.93$
  Q  0.6645  13.81$  1.88$  13.96$
  Q  0.6645  13.69$  0.47$  13.39$
  Q  -1.3290  14.06$  1.1$  13.8$
  Q  0.6645  13.4$  19.3$  17.41$
  Q  0.6645  12.91$  19.1$  15.99$
  Q  -1.3290  13.33$  19.48$  16.58$
  Q  0.6645  14.02$  1.65$  8.85$
  Q  0.6645  14.22$  0.47$  9.95$
  Q  -1.3290  13.84$  1.16$  9.57$
  Q  0.6645  10$  15.05$  6.42$
  Q  0.6645  8.78$  15.91$  6.64$
  Q  -1.3290  9.18$  15.26$  6.34$
  Q  0.6645  10.06$  3.66$  8.54$
  Q  0.6645  10.24$  4.12$  7.04$
  Q  -1.3290  10.16$  3.55$  7.67$
  Q  0.6645  6.07$  4.94$  13.79$
  Q  0.6645  6.95$  3.84$  14.32$
  Q  -1.3290  6.45$  4.5$  14.4$
  Q  0.6645  7.75$  17.73$  3.82$
  Q  0.6645  6.37$  17.88$  3.3$
  Q  -1.3290  7.14$  17.55$  3.29$
  Q  0.6645  11.41$  4.36$  15.49$
  Q  0.6645  12.13$  5.57$  16.12$
  Q  -1.3290  11.72$  5.16$  15.51$
  Q  0.6645  17.29$  6.28$  11.35$
  Q  0.6645  16.67$  5.41$  10.4$
  Q  -1.3290  17.31$  5.63$  10.86$
  Q  0.6645  18.37$  4$  11.43$
  Q  0.6645  19.31$  3.09$  12.22$
  Q  -1.3290  18.59$  3.27$  11.84$
  Q  0.6645  15.31$  16.35$  3.42$
  Q  0.6645  16.36$  15.19$  3.55$
  Q  -1.3290  16.01$  15.89$  3.2$
  Q  0.6645  19.31$  4.46$  8.28$
  Q  0.6645  18.7$  5.4$  9.39$
  Q  -1.3290  19.28$  5.13$  8.85$
  Q  0.6645  12.74$  12.5$  -0.18$
  Q  0.6645  13.12$  12.53$  1.35$
  Q  -1.3290  12.69$  12.68$  0.65$
  Q  0.6645  9.88$  4.04$  11.45$
  Q  0.6645  11.35$  4.09$  10.98$
  Q  -1.3290  10.52$  3.85$  10.96$
  Q  0.6645  4.85$  9.61$  1.96$
  Q  0.6645  5.51$  11.05$  1.79$
  Q  -1.3290  5.04$  10.34$  1.57$
  Q  0.6645  13.23$  10.52$  17.71$
  Q  0.6645  12.46$  11.79$  18.08$
  Q  -1.3290  12.98$  11.34$  17.62$
  Q  0.6645  14.44$  10.75$  2.81$
  Q  0.6645  13.21$  11.07$  3.72$
  Q  -1.3290  13.81$  11.22$  3.12$
  Q  0.6645  5.8$  7.49$  7.23$
  Q  0.6645  7.02$  8.1$  7.85$
  Q  -1.3290  6.22$  7.79$  7.85$
  Q  0.6645  17.73$  17.33$  3.82$
  Q  0.6645  17.78$  18.83$  3.47$
  Q  -1.3290  17.89$  18.14$  3.96$
  Q  0.6645  8.66$  6.72$  5.37$
  Q  0.6645  9.5$  7.71$  5.93$
  Q  -1.3290  9.32$  7.18$  5.35$
  Q  0.6645  6.64$  5.5$  6.21$
  Q  0.6645  7.58$  4.61$  5.41$
  Q  -1.3290  7.37$  5.25$  5.91$
  Q  0.6645  5.34$  14.66$  15.31$
  Q  0.6645  4.04$  14.8$  14.42$
  Q  -1.3290  4.81$  14.5$  14.66$
  Q  0.6645  12.38$  6.06$  9$
  Q  0.6645  13.15$  5.98$  7.56$
  Q  -1.3290  12.51$  6.13$  8.12$
  Q  0.6645  1.01$  12.01$  11.81$
  Q  0.6645  2.16$  12.73$  11.14$
  Q  -1.3290  1.34$  12.59$  11.3$
  Q  0.6645  10.49$  18.4$  18.41$
  Q  0.6645  10.8$  17.45$  17.3$
  Q  -1.3290  10.3$  17.91$  17.79$
  Q  0.6645  10.86$  18.64$  10.55$
  Q  0.6645  10.5$  20.06$  10.2$
  Q  -1.3290  10.91$  19.47$  10.64$
  Q  0.6645  13.25$  10.53$  19.8$
  Q  0.6645  14.2$  10.26$  20.89$
  Q  -1.3290  13.7$  10.75$  20.42$
  Q  0.6645  13.91$  5.32$  17.62$
  Q  0.6645  12.88$  5.89$  18.64$
  Q  -1.3290  13.14$  5.66$  17.89$
  Q  0.6645  6.89$  4.81$  19.91$
  Q  0.6645  8.14$  4.82$  20.6$
  Q  -1.3290  7.4$  4.54$  20.46$
  Q  0.6645  8.21$  14.81$  4.53$
  Q  0.6645  7.46$  15.62$  3.46$
  Q  -1.3290  7.71$  14.91$  3.87$
  Q  0.6645  9.19$  10.75$  17.06$
  Q  0.6645  10$  11.86$  17.68$
  Q  -1.3290  9.47$  11.52$  17.11$
  Q  0.6645  4.56$  2.08$  17$
  Q  0.6645  5.47$  3.25$  17.52$
  Q  -1.3290  5.04$  2.49$  17.57$
  Q  0.6645  15.29$  11.74$  19.59$
  Q  0.6645  15.61$  12.7$  18.54$
  Q  -1.3290  15.72$  12$  18.94$
  Q  0.6645  18.8$  11.55$  5.81$
  Q  0.6645  19.47$  12.86$  5.91$
  Q  -1.3290  19.45$  12.04$  5.8$
  Q  0.6645  2.5$  16.5$  11.21$
  Q  0.6645  3.98$  16.57$  10.75$
  Q  -1.3290  3.31$  16.33$  11.21$
  Q  0.6645  17.07$  10.44$  15.99$
  Q  0.6645  17.87$  10.66$  17.3$
  Q  -1.3290  17.59$  10.23$  16.64$
  Q  0.6645  2.58$  13.14$  15.45$
  Q  0.6645  1.64$  11.83$  15.22$
  Q  -1.3290  1.96$  12.62$  15.07$
  Q  0.6645  0.93$  7.91$  18.27$
  Q  0.6645  2.17$  8.73$  18.69$
  Q  -1.3290  1.52$  8.5$  18.18$
  Q  0.6645  3.89$  17.12$  14.23$
  Q  0.6645  3.38$  16.82$  15.75$
  Q  -1.3290  3.34$  16.92$  14.89$
  Q  0.6645  19.18$  15.86$  15.45$
  Q  0.6645  20.55$  16.5$  16$
  Q  -1.3290  20.05$  16.08$  15.45$
  Q  0.6645  5.23$  9.27$  4.51$
  Q  0.6645  3.88$  9.27$  3.98$
  Q  -1.3290  4.6$  8.93$  4.16$
  Q  0.6645  17.68$  17.36$  7.08$
  Q  0.6645  17.06$  17.68$  5.7$
  Q  -1.3290  17.05$  17.55$  6.54$
  Q  0.6645  10.37$  11.13$  3.03$
  Q  0.6645  11.08$  12.51$  2.83$
  Q  -1.3290  10.8$  11.82$  3.24$
  Q  0.6645  13.83$  19.78$  12.67$
  Q  0.6645  14.6$  18.38$  12.36$
  Q  -1.3290  14.48$  19.25$  12.43$
  Q  0.6645  6.6$  8.54$  1.16$
  Q  0.6645  7.69$  8.53$  0.05$
  Q  -1.3290  7.37$  8.59$  0.84$
  Q  0.6645  14.75$  16.31$  11.21$
  Q  0.6645  16.06$  17.09$  10.73$
  Q  -1.3290  15.2$  16.98$  10.87$
  Q  0.6645  19.93$  9$  8.89$
  Q  0.6645  20.15$  10.62$  8.88$
  Q  -1.3290  20.17$  9.81$  9.16$
  Q  0.6645  5.89$  7.85$  15.44$
  Q  0.6645  5.22$  8.91$  16.43$
  Q  -1.3290  5.64$  8.16$  16.21$
  Q  0.6645  1.93$  3.57$  10.5$
  Q  0.6645  0.42$  3.28$  10.9$
  Q  -1.3290  1.12$  3.27$  10.41$
  Q  0.6645  11.51$  15.56$  19.98$
  Q  0.6645  10.57$  15.89$  18.86$
  Q  -1.3290  11.16$  15.44$  19.23$
  Q  0.6645  3.66$  16.18$  4.01$
  Q  0.6645  4.9$  15.39$  4.5$
  Q  -1.3290  4.46$  15.91$  3.95$
  Q  0.6645  8.9$  13.4$  19.59$
  Q  0.6645  8.41$  12.84$  18.28$
  Q  -1.3290  8.42$  13.42$  18.88$
  Q  0.6645  19.17$  15.25$  7.85$
  Q  0.6645  18.08$  15.44$  8.85$
  Q  -1.3290  18.4$  15.13$  8.16$
  Q  0.6645  6.72$  13.4$  19.6$
  Q  0.6645  5.43$  13.76$  20.4$
  Q  -1.3290  6.1$  13.26$  20.13$
  Q  0.6645  7.33$  13.9$  12.54$
  Q  0.6645  7.79$  15.35$  12.13$
  Q  -1.3290  7.82$  14.57$  12.53$
  Q  0.6645  3.28$  13.74$  9.21$
  Q  0.6645  3.11$  14.78$  8.06$
  Q  -1.3290  2.99$  14.03$  8.45$
  Q  0.6645  6.08$  1.86$  11.03$
  Q  0.6645  6.22$  2.13$  9.47$
  Q  -1.3290  5.87$  1.87$  10.21$
  Q  0.6645  3.72$  12.05$  4.54$
  Q  0.6645  2.37$  11.77$  5.07$
  Q  -1.3290  3.02$  11.68$  4.52$
  Q  0.6645  0.45$  9.08$  9.18$
  Q  0.6645  1.52$  8.03$  9.18$
  Q  -1.3290  1.07$  8.61$  9.53$
  Q  0.6645  1.53$  10.15$  6.47$
  Q  0.6645  2.98$  10$  7.06$
  Q  -1.3290  2.22$  9.72$  6.78$
  Q  0.6645  20.99$  15.45$  6.58$
  Q  0.6645  21.42$  14.34$  7.52$
  Q  -1.3290  21.07$  14.65$  6.82$
  Q  0.6645  4.45$  8.78$  19.52$
  Q  0.6645  3.47$  7.92$  20.22$
  Q  -1.3290  3.95$  8.11$  19.6$
  Q  0.6645  16.32$  15.43$  1.35$
  Q  0.6645  17.13$  14.34$  0.98$
  Q  -1.3290  16.58$  14.89$  0.81$
  Q  0.6645  12.6$  16.49$  16.04$
  Q  0.6645  11.2$  16.5$  15.28$
  Q  -1.3290  11.81$  16.82$  15.77$
  Q  0.6645  15.04$  8.5$  18.76$
  Q  0.6645  15.36$  9.88$  18.23$
  Q  -1.3290  14.91$  9.18$  18.29$
  Q  0.6645  20.22$  7.62$  7.05$
  Q  0.6645  19.2$  6.93$  8.03$
  Q  -1.3290  19.59$  7.59$  7.67$
  Q  0.6645  7.2$  1.76$  13.34$
  Q  0.6645  7.6$  3$  12.62$
  Q  -1.3290  7.19$  2.29$  12.73$
  Q  0.6645  11.25$  8.81$  1.8$
  Q  0.6645  12.17$  7.49$  1.73$
  Q  -1.3290  11.86$  8.25$  1.49$
  Q  0.6645  19.06$  8.81$  16.11$
  Q  0.6645  19.56$  7.44$  16.09$
  Q  -1.3290  19.59$  8.22$  15.89$
  Q  0.6645  7$  20.17$  11.71$
  Q  0.6645  8.27$  20.24$  12.31$
  Q  -1.3290  7.58$  19.86$  12.19$
  Q  0.6645  3.43$  3.87$  4.23$
  Q  0.6645  4.26$  5.06$  4.93$
  Q  -1.3290  3.62$  4.67$  4.52$
  Q  0.6645  11.09$  10.38$  21.8$
  Q  0.6645  9.97$  9.77$  21.01$
  Q  -1.3290  10.35$  10.38$  21.41$
  Q  0.6645  15.14$  19.95$  10.42$
  Q  0.6645  15.18$  20.19$  8.97$
  Q  -1.3290  15.22$  20.44$  9.75$
  Q  0.6645  4.18$  6.69$  16.6$
  Q  0.6645  2.85$  6.35$  17.34$
  Q  -1.3290  3.44$  6.24$  16.73$
  Q  0.6645  13.31$  4.75$  10.86$
  Q  0.6645  12.37$  5.81$  11.6$
  Q  -1.3290  12.87$  5.5$  10.96$
  Q  0.6645  7.25$  5.39$  1.4$
  Q  0.6645  7.95$  6.69$  1.88$
  Q  -1.3290  7.88$  5.87$  1.74$
  Q  0.6645  15.07$  12.55$  3.68$
  Q  0.6645  15.33$  13.48$  4.88$
  Q  -1.3290  15.54$  13$  4.22$
  Q  0.6645  8.61$  16.24$  15.26$
  Q  0.6645  8.57$  17.04$  16.65$
  Q  -1.3290  8.26$  16.67$  15.92$
  Q  0.6645  9.83$  5$  19.61$
  Q  0.6645  10.15$  4.88$  21.13$
  Q  -1.3290  9.9$  5.28$  20.44$
  Q  0.6645  8.17$  15.78$  20.54$
  Q  0.6645  8.56$  15.32$  19.14$
  Q  -1.3290  8.38$  15.9$  19.77$
  Q  0.6645  9.06$  5.78$  15.88$
  Q  0.6645  7.94$  5.72$  14.9$
  Q  -1.3290  8.49$  6.11$  15.38$
  Q  0.6645  9.43$  18.21$  5.66$
  Q  0.6645  10.06$  19.21$  4.65$
  Q  -1.3290  9.64$  18.5$  4.89$
  Q  0.6645  17.3$  14.5$  15.48$
  Q  0.6645  16.87$  15.46$  16.58$
  Q  -1.3290  17.2$  15.24$  15.84$
  Q  0.6645  16.8$  11.88$  6.76$
  Q  0.6645  16.39$  11.56$  5.27$
  Q  -1.3290  16.74$  11.39$  6.05$
  Q  0.6645  10.69$  19.17$  15.55$
  Q  0.6645  10.77$  20.64$  16.2$
  Q  -1.3290  10.74$  20.06$  15.57$
  Q  0.6645  17.31$  16.33$  13.77$
  Q  0.6645  18.63$  16.17$  13.1$
  Q  -1.3290  17.9$  16.56$  13.24$
  Q  0.6645  14.12$  8.37$  16.29$
  Q  0.6645  13.27$  7.13$  16.75$
  Q  -1.3290  13.59$  7.69$  16.19$
  Q  0.6645  7.69$  0.78$  15.43$
  Q  0.6645  6.82$  1.63$  16.42$
  Q  -1.3290  7.07$  1.31$  15.65$
  Q  0.6645  18.36$  17.44$  9.93$
  Q  0.6645  18.14$  16.61$  11.17$
  Q  -1.3290  17.98$  16.85$  10.39$
  Q  0.6645  11.14$  11.75$  19.99$
  Q  0.6645  11.55$  13.25$  19.5$
  Q  -1.3290  11.33$  12.41$  19.44$
  Q  0.6645  4.78$  8.81$  9.46$
  Q  0.6645  3.39$  9.47$  9.78$
  Q  -1.3290  4.11$  8.98$  9.94$
  Q  0.6645  20.01$  9.5$  12.53$
  Q  0.6645  19.78$  9.34$  11.07$
  Q  -1.3290  19.55$  9.28$  11.85$
  Q  0.6645  14.62$  4.54$  14.01$
  Q  0.6645  13.05$  4.29$  14.14$
  Q  -1.3290  13.85$  4.13$  13.89$
  Q  0.6645  2.21$  9.37$  16.39$
  Q  0.6645  2.15$  9.08$  14.87$
  Q  -1.3290  2.23$  9.57$  15.55$
  Q  0.6645  3.56$  7.89$  11.4$
  Q  0.6645  3.05$  7.22$  12.72$
  Q  -1.3290  3.47$  7.26$  11.99$
  Q  0.6645  12.7$  16.97$  3.9$
  Q  0.6645  13.91$  17.93$  3.74$
  Q  -1.3290  13.5$  17.24$  4.02$
  Q  0.6645  12.21$  14.7$  14$
  Q  0.6645  13.63$  14.55$  13.34$
  Q  -1.3290  12.93$  14.31$  13.77$
  Q  0.6645  16.61$  12.01$  14.72$
  Q  0.6645  18.13$  12.41$  14.42$
  Q  -1.3290  17.28$  12.53$  14.54$
  Q  0.6645  4.09$  19.31$  9.22$
  Q  0.6645  5.2$  18.36$  8.96$
  Q  -1.3290  4.88$  19.11$  9.09$
  Q  0.6645  5.93$  6.2$  8.94$
  Q  0.6645  5.94$  4.63$  8.71$
  Q  -1.3290  5.83$  5.39$  9.15$
  Q  0.6645  1.34$  9.5$  11.36$
  Q  0.6645  2.41$  10.04$  12.38$
  Q  -1.3290  1.63$  9.85$  12.12$
  Q  0.6645  15.69$  16.93$  13.2$
  Q  0.6645  15.17$  17.18$  14.67$
  Q  -1.3290  15.16$  16.86$  13.86$
  Q  0.6645  8.85$  2.93$  6.22$
  Q  0.6645  7.93$  2.63$  5.15$
  Q  -1.3290  8.31$  2.43$  5.83$
  Q  0.6645  7.76$  9.25$  19.56$
  Q  0.6645  9.12$  8.47$  19.31$
  Q  -1.3290  8.38$  8.66$  19.74$
  Q  0.6645  6.27$  20.19$  9.76$
  Q  0.6645  6.36$  21.7$  10.09$
  Q  -1.3290  6.64$  20.89$  10.07$
  Q  0.6645  5.87$  11.04$  19.95$
  Q  0.6645  5.54$  10.29$  21.12$
  Q  -1.3290  5.69$  10.35$  20.32$
  Q  0.6645  4.9$  11.11$  17.64$
  Q  0.6645  5.49$  11.83$  16.43$
  Q  -1.3290  5.43$  11.2$  17.01$
  Q  0.6645  7.55$  17.77$  11.44$
  Q  0.6645  8.69$  17.42$  10.58$
  Q  -1.3290  7.99$  17.26$  10.98$
  Q  0.6645  4.98$  17.28$  5.63$
  Q  0.6645  4.65$  17.01$  7.05$
  Q  -1.3290  5.17$  17.15$  6.4$
  Q  0.6645  16.85$  13.44$  12.71$
  Q  0.6645  17.14$  12.51$  11.41$
  Q  -1.3290  17.04$  13.23$  11.86$
  Q  0.6645  9.56$  0.4$  13.4$
  Q  0.6645  9.54$  -0.46$  14.69$
  Q  -1.3290  9.21$  0.07$  14.11$
  Q  0.6645  15.56$  2.35$  6.82$
  Q  0.6645  14.12$  3.09$  6.92$
  Q  -1.3290  14.78$  2.56$  7.17$
  Q  0.6645  5.43$  2.65$  7.45$
  Q  0.6645  6.96$  2.66$  7.22$
  Q  -1.3290  6.25$  2.92$  7.56$
  Q  0.6645  6.1$  5.01$  16.47$
  Q  0.6645  6.26$  5.75$  17.86$
  Q  -1.3290  6.24$  5.09$  17.31$
  Q  0.6645  13.62$  3.9$  5.02$
  Q  0.6645  12.46$  4.14$  6.03$
  Q  -1.3290  13.27$  4.12$  5.79$
  Q  0.6645  9.78$  3.77$  17.88$
  Q  0.6645  8.51$  4.65$  17.85$
  Q  -1.3290  9.34$  4.51$  17.87$
  Q  0.6645  11.76$  8.27$  4.63$
  Q  0.6645  13$  8.78$  3.94$
  Q  -1.3290  12.38$  8.81$  4.52$
  Q  0.6645  10.74$  15.83$  3.31$
  Q  0.6645  10.5$  17.08$  4.15$
  Q  -1.3290  10.94$  16.38$  3.9$
  Q  0.6645  11.97$  8.11$  18.6$
  Q  0.6645  11.31$  9.17$  17.66$
  Q  -1.3290  11.44$  8.73$  18.38$
  Q  0.6645  17.03$  9.51$  6.18$
  Q  0.6645  17.92$  8.46$  7.02$
  Q  -1.3290  17.23$  8.8$  6.62$
  Q  0.6645  7.5$  8.5$  16.93$
  Q  0.6645  8.81$  8.3$  16.32$
  Q  -1.3290  8.25$  8.72$  16.74$
  Q  0.6645  19.98$  19.18$  9.35$
  Q  0.6645  18.79$  19.52$  8.52$
  Q  -1.3290  19.33$  19.01$  8.85$
  Q  0.6645  4.63$  2.57$  13.64$
  Q  0.6645  3.87$  3.05$  12.5$
  Q  -1.3290  3.94$  2.68$  13.25$
  Q  0.6645  7.19$  17.7$  7.2$
  Q  0.6645  8.47$  17.79$  8.16$
  Q  -1.3290  8.05$  17.73$  7.42$
  Q  0.6645  12.68$  5.42$  3.37$
  Q  0.6645  11.69$  5.38$  2.2$
  Q  -1.3290  12.29$  5.74$  2.69$
  Q  0.6645  17.56$  2.62$  10.26$
  Q  0.6645  16.14$  3.04$  9.89$
  Q  -1.3290  16.94$  2.91$  9.74$
  Q  0.6645  11.04$  1.78$  15.56$
  Q  0.6645  10.74$  1.92$  14.16$
  Q  -1.3290  11.02$  2.19$  14.87$
  Q  0.6645  19.04$  15.41$  4.99$
  Q  0.6645  18.15$  14.84$  6.11$
  Q  -1.3290  18.42$  14.92$  5.3$
  Q  0.6645  9.13$  14.28$  2.53$
  Q  0.6645  9.85$  13.87$  1.3$
  Q  -1.3290  9.8$  14.26$  2.02$
  Q  0.6645  20.55$  11.81$  4.01$
  Q  0.6645  19.59$  11.71$  2.8$
  Q  -1.3290  20.34$  11.59$  3.21$
  Q  0.6645  15.26$  19.04$  15.97$
  Q  0.6645  16.76$  19.41$  15.76$
  Q  -1.3290  16.11$  18.96$  16.01$
  Q  0.6645  15.39$  7.6$  2.71$
  Q  0.6645  14.06$  7.98$  2.05$
  Q  -1.3290  14.68$  8.03$  2.61$
  Q  0.6645  7.23$  13.07$  2.71$
  Q  0.6645  6.12$  13.21$  1.81$
  Q  -1.3290  6.66$  12.76$  2.22$
  Q  0.6645  17.3$  4.9$  15.43$
  Q  0.6645  17.81$  3.56$  15.17$
  Q  -1.3290  17.85$  4.31$  15.52$
  Q  0.6645  15.6$  19.05$  7.19$
  Q  0.6645  14.05$  19.15$  7.37$
  Q  -1.3290  14.84$  19.44$  7.3$
  Q  0.6645  11.57$  9$  6.59$
  Q  0.6645  11.77$  7.87$  7.65$
  Q  -1.3290  11.35$  8.46$  7.2$
  Q  0.6645  16.27$  4.42$  17.41$
  Q  0.6645  16.23$  5.96$  17.64$
  Q  -1.3290  15.91$  5.16$  17.59$
  Q  0.6645  16.12$  6.7$  13.94$
  Q  0.6645  14.84$  6.87$  14.84$
  Q  -1.3290  15.54$  6.49$  14.52$
  Q  0.6645  19.05$  18.31$  13.72$
  Q  0.6645  18.54$  19.76$  13.7$
  Q  -1.3290  19.09$  19.16$  13.85$
  Q  0.6645  6.49$  17.26$  14.45$
  Q  0.6645  6.27$  18.57$  13.78$
  Q  -1.3290  6.06$  17.79$  13.98$
  Q  0.6645  4$  4.59$  10.65$
  Q  0.6645  3.01$  5.43$  11.53$
  Q  -1.3290  3.29$  4.71$  11.11$
  Q  0.6645  17.19$  12.69$  2.84$
  Q  0.6645  18.51$  13.31$  3.42$
  Q  -1.3290  18.02$  12.92$  2.8$
  Q  0.6645  11.13$  0.68$  12.12$
  Q  0.6645  10.62$  2.05$  11.7$
  Q  -1.3290  10.7$  1.38$  12.21$
  Q  0.6645  2.05$  6.14$  8.3$
  Q  0.6645  3.49$  6.47$  8.9$
  Q  -1.3290  2.8$  6.53$  8.38$
  Q  0.6645  20.82$  14.6$  10.35$
  Q  0.6645  22.19$  13.96$  9.96$
  Q  -1.3290  21.52$  14.48$  9.86$
  Q  0.6645  3.09$  13.2$  17.76$
  Q  0.6645  3.96$  14.29$  17.17$
  Q  -1.3290  3.25$  13.89$  17.29$
  Q  0.6645  19.88$  17.27$  5.83$
  Q  0.6645  20.01$  17.65$  7.42$
  Q  -1.3290  19.97$  17.15$  6.7$
  Q  0.6645  19.43$  12.72$  18.37$
  Q  0.6645  18.95$  12.67$  16.97$
  Q  -1.3290  19.32$  12.33$  17.65$
  Q  0.6645  4.64$  10.88$  13.05$
  Q  0.6645  3.72$  10.38$  14.01$
  Q  -1.3290  4.16$  10.29$  13.36$
  Q  0.6645  11.75$  20.56$  13.73$
  Q  0.6645  11.87$  20.34$  12.19$
  Q  -1.3290  12.11$  20.61$  12.96$
  Q  0.6645  5.48$  12.56$  5.59$
  Q  0.6645  6.07$  13.25$  4.32$
  Q  -1.3290  5.51$  13.15$  4.95$
  Q  0.6645  10.55$  3.43$  4.53$
  Q  0.6645  10.27$  4.95$  4.37$
  Q  -1.3290  10.45$  4.23$  4.79$
  Q  0.6645  2.88$  3.46$  14.76$
  Q  0.6645  2.8$  4.54$  15.85$
  Q  -1.3290  2.56$  3.87$  15.43$
  Q  0.6645  16.78$  9.76$  1.65$
  Q  0.6645  17.04$  11.15$  1.15$
  Q  -1.3290  16.58$  10.52$  1.43$
  Q  0.6645  5.61$  15.81$  17.62$
  Q  0.6645  6.7$  15.06$  16.97$
  Q  -1.3290  5.9$  15.19$  17.14$
  Q  0.6645  17.23$  8.35$  17.74$
  Q  0.6645  17.96$  7.6$  18.69$
  Q  -1.3290  17.41$  7.66$  18.14$
  Q  0.6645  8.64$  20.79$  9.75$
  Q  0.6645  9.77$  21.53$  8.82$
  Q  -1.3290  9.28$  20.88$  9.14$
  Q  0.6645  14.41$  3.4$  11.92$
  Q  0.6645  13.96$  2.54$  10.67$
  Q  -1.3290  14.08$  3.24$  11.15$
  Q  0.6645  13.96$  14.98$  15.7$
  Q  0.6645  13.99$  14.87$  17.26$
  Q  -1.3290  13.98$  15.27$  16.5$
  Q  0.6645  0.48$  14.21$  12.6$
  Q  0.6645  0.71$  13.85$  14.03$
  Q  -1.3290  0.33$  14.23$  13.4$
  Q  0.6645  4.04$  14.35$  11.23$
  Q  0.6645  4.62$  12.87$  11.2$
  Q  -1.3290  4.23$  13.56$  10.91$
  Q  0.6645  5.47$  6.91$  19.67$
  Q  0.6645  6.99$  7.19$  19.33$
  Q  -1.3290  6.28$  6.71$  19.49$
  Q  0.6645  12.45$  16.79$  11.9$
  Q  0.6645  12.66$  17.45$  13.23$
  Q  -1.3290  12.2$  17.11$  12.64$
  Q  0.6645  18.89$  14.42$  11.69$
  Q  0.6645  20.1$  14.4$  12.44$
  Q  -1.3290  19.62$  14.67$  11.84$
  Q  0.6645  2.97$  11.6$  19.49$
  Q  0.6645  2.04$  11.22$  18.32$
  Q  -1.3290  2.77$  11.43$  18.7$
  Q  0.6645  12.06$  1.02$  9.02$
  Q  0.6645  10.89$  1.72$  8.26$
  Q  -1.3290  11.36$  1.07$  8.5$
  Q  0.6645  15.21$  8.79$  6.8$
  Q  0.6645  13.75$  8.44$  6.21$
  Q  -1.3290  14.37$  8.61$  6.81$
  Q  0.6645  14.3$  15.1$  19.59$
  Q  0.6645  13.07$  14.79$  18.87$
  Q  -1.3290  13.85$  14.67$  19.05$
  Q  0.6645  6.4$  16.43$  9.84$
  Q  0.6645  5.52$  15.69$  8.8$
  Q  -1.3290  5.69$  16.29$  9.37$
  Q  0.6645  9.7$  8.62$  3.55$
  Q  0.6645  8.99$  9.1$  2.24$
  Q  -1.3290  9.63$  9$  2.8$
  Q  0.6645  1.27$  6.78$  14.25$
  Q  0.6645  2.53$  6.86$  15$
  Q  -1.3290  2.03$  7.09$  14.37$
  Q  0.6645  17.26$  13.45$  8.28$
  Q  0.6645  16.98$  12.17$  9.16$
  Q  -1.3290  16.82$  12.78$  8.56$
  Q  0.6645  22.04$  10.19$  13.35$
  Q  0.6645  21.08$  9.56$  14.63$
  Q  -1.3290  21.34$  10.04$  13.92$
*
