! NoMOPrint PrintBasis #MINIPRINT SMALLPRINT LARGEPRINT
! ALLPOP XYZFILE
#! BP86 3-21G   TightSCF
! ENGRAD
! B3LYP NormalPNO PModel #DecontractAux
#! VerySlowConv 
 %maxcore 5000
 %scf  maxiter   500  end 

%pal
    nprocs 32
end

%basis
    NewGTO O    # New basis for oxygen
        "aug-cc-pVTZ"
    end
    NewGTO C    # New basis for carbon
        "aug-cc-pVTZ"
    end
    NewGTO H    # New basis for hydrogen
        "cc-pVTZ"
    end
end

* xyz 0   1
  C  12.12  10.69  9.51  #1
  H  13.06  11.18  9.04  #2
  H  11.21  11.06  8.98  #3
  C  11.98  11.17  10.97  #4
  H  11.99  10.26  11.6  #5
  H  12.92  11.72  11.13  #6
  C  10.74  12.06  11.27  #7
  H  10.73  12.94  10.64  #8
  H  10.83  12.39  12.28  #9
  C  9.4  11.53  10.97  #10
  H  9.35  11.16  9.96  #11
  H  8.7  12.36  11.01  #12
  O  9.07  10.44  11.8  #13
  H  9.05  10.75  12.77  #14
  O  12.18  9.23  9.35  #15
  H  11.34  8.82  9.66  #16
  O  6.7  10.37  8.22  #17
  H  6.7  11.05  8.87  #18
  H  5.88  10.5  7.67  #19
  O  11.6  15.58  11.08  #20
  H  12.43  16.02  10.88  #21
  H  11.73  15.14  11.93  #22
  O  9.67  8.25  8.92  #23
  H  9.35  8.97  8.32  #24
  H  8.95  8.1  9.6  #25
  O  8.46  7.63  11.41  #26
  H  7.49  7.52  11.49  #27
  H  8.69  8.54  11.73  #28
  O  13.39  6.44  9.49  #29
  H  13.2  7.39  9.66  #30
  H  12.53  6.16  9.06  #31
  O  6.97  13.16  9.46  #32
  H  7.82  13.61  9.61  #33
  H  6.58  13.45  8.64  #34
  O  8.83  10.89  14.38  #35
  H  9.71  10.74  14.71  #36
  H  8.5  10.03  14.64  #37
  O  13.49  18.07  10.6  #38
  H  13.01  18.77  10.15  #39
  H  14.18  17.95  9.89  #40
  O  15.2  4.87  10.97  #41
  H  15.67  5.24  11.72  #42
  H  14.54  5.55  10.8  #43
  O  9.38  14.87  9.7  #44
  H  8.65  15.37  10.08  #45
  H  10.1  15.21  10.24  #46
  O  12.96  8.04  12.08  #47
  H  12.24  7.39  11.94  #48
  H  13.59  7.61  12.62  #49
  O  5.32  10.16  6  #50
  H  4.93  9.39  5.52  #51
  H  4.99  10.92  5.52  #52
  O  6.17  11.92  11.89  #53
  H  6.32  12.49  11.14  #54
  H  5.8  12.46  12.63  #55
  O  11.06  6.33  7.64  #56
  H  11.22  6.89  6.91  #57
  H  10.4  6.92  8.09  #58
  O  14.77  10.3  12.25  #59
  H  14.18  9.58  11.91  #60
  H  14.66  10.35  13.16  #61
  O  8.35  5.31  8.54  #62
  H  9.27  5.07  8.39  #63
  H  8.28  6.19  8.09  #64
  O  13.65  13.92  9.27  #65
  H  14.35  13.26  9.45  #66
  H  13.16  14.14  10.06  #67
  O  8.85  13.71  14.08  #68
  H  8.42  12.87  14.03  #69
  H  8.31  14.31  13.63  #70
  O  10.51  18.12  11.69  #71
  H  10.79  17.24  11.9  #72
  H  9.64  18.18  12.15  #73
  O  14.66  6.27  6.62  #74
  H  14.4  5.69  7.37  #75
  H  14.62  5.67  5.89  #76
  O  11.98  11.33  6.08  #77
  H  11.23  11.14  5.45  #78
  H  12.19  10.53  6.5  #79
  O  15.58  11.98  9.79  #80
  H  16.14  11.72  9.04  #81
  H  15.41  11.3  10.42  #82
  O  5.81  6.46  11.26  #83
  H  5.93  5.48  11.11  #84
  H  5.2  6.44  12.01  #85
  O  13.36  13.54  6.63  #86
  H  13.29  12.6  6.49  #87
  H  13.27  13.75  7.54  #88
  O  11.8  15.26  13.99  #89
  H  12.75  14.97  14.03  #90
  H  11.36  14.77  14.68  #91
  O  5.12  9.53  11.79  #92
  H  5.64  10.36  11.74  #93
  H  5.61  9.03  11.1  #94
  O  9.95  13.31  7.43  #95
  H  9.9  13.83  8.23  #96
  H  10.81  13.42  7.02  #97
  O  9.31  10.47  7.29  #98
  H  9.79  11.34  7.4  #99
  H  8.4  10.63  7.59  #100
  O  11.09  8.93  14.32  #101
  H  11.23  8.96  13.37  #102
  H  10.58  8.15  14.54  #103
  O  10.65  6.02  11.94  #104
  H  10.83  5.69  12.81  #105
  H  9.92  6.61  11.95  #106
  O  13.38  8.83  7.04  #107
  H  13.59  7.94  6.8  #108
  H  13.05  8.79  7.99  #109
  Q  0.6645  15.3$  14.08$  6.43$
  Q  0.6645  16.62$  13.33$  6.64$
  Q  -1.3290  16.13$  14.01$  6.56$
  Q  0.6645  7.21$  16.48$  5.25$
  Q  0.6645  7.91$  15.24$  5.78$
  Q  -1.3290  7.81$  16.1$  5.65$
  Q  0.6645  13.84$  11.1$  15.47$
  Q  0.6645  14.54$  12.21$  14.69$
  Q  -1.3290  14.4$  11.41$  14.94$
  Q  0.6645  8.15$  20.53$  10.43$
  Q  0.6645  7.06$  21.54$  10.1$
  Q  -1.3290  7.46$  20.96$  10.58$
  Q  0.6645  4.27$  17.92$  5.67$
  Q  0.6645  4.57$  17.37$  6.93$
  Q  -1.3290  4.78$  17.78$  6.27$
  Q  0.6645  6.72$  17.3$  10.5$
  Q  0.6645  7.93$  17.18$  9.65$
  Q  -1.3290  7.26$  16.88$  10.05$
  Q  0.6645  9.56$  5.05$  18.43$
  Q  0.6645  9.94$  3.68$  17.84$
  Q  -1.3290  9.49$  4.39$  17.92$
  Q  0.6645  18.16$  17.6$  11.35$
  Q  0.6645  16.6$  17.42$  11.12$
  Q  -1.3290  17.33$  17.82$  11.32$
  Q  0.6645  3.55$  4.8$  16.39$
  Q  0.6645  3.39$  6.29$  15.98$
  Q  -1.3290  3.59$  5.63$  16.47$
  Q  0.6645  5.81$  8.86$  16.73$
  Q  0.6645  5.31$  8.25$  15.31$
  Q  -1.3290  5.42$  8.85$  15.96$
  Q  0.6645  1.97$  7.2$  14.31$
  Q  0.6645  3.08$  8.3$  14.31$
  Q  -1.3290  2.66$  7.6$  14.57$
  Q  0.6645  15.3$  9.89$  1.5$
  Q  0.6645  15.1$  11.28$  0.78$
  Q  -1.3290  15.23$  10.75$  1.43$
  Q  0.6645  4.11$  11.87$  3.59$
  Q  0.6645  4.1$  13.21$  4.37$
  Q  -1.3290  4.39$  12.44$  4.16$
  Q  0.6645  14.32$  10.96$  4.58$
  Q  0.6645  15.7$  10.65$  4.28$
  Q  -1.3290  15.11$  10.95$  4.76$
  Q  0.6645  18.32$  12.09$  14.63$
  Q  0.6645  17.82$  13.23$  15.4$
  Q  -1.3290  18.2$  12.89$  14.76$
  Q  0.6645  6.82$  12.29$  19.63$
  Q  0.6645  6.85$  13.87$  19.87$
  Q  -1.3290  6.51$  13.11$  19.7$
  Q  0.6645  8.69$  17.46$  16.12$
  Q  0.6645  8.01$  16.24$  16.75$
  Q  -1.3290  8.63$  16.76$  16.58$
  Q  0.6645  15.39$  9.38$  19.8$
  Q  0.6645  16.17$  10.69$  19.27$
  Q  -1.3290  16$  9.83$  19.4$
  Q  0.6645  11.16$  4.85$  14.98$
  Q  0.6645  12.1$  5.97$  14.63$
  Q  -1.3290  11.37$  5.6$  14.71$
  Q  0.6645  3.97$  11.75$  17.25$
  Q  0.6645  4.08$  10.23$  16.69$
  Q  -1.3290  3.69$  10.96$  17.02$
  Q  0.6645  7.69$  6.06$  4.89$
  Q  0.6645  8.03$  7.48$  5.3$
  Q  -1.3290  8.08$  6.62$  5.35$
  Q  0.6645  13.22$  9.62$  20.92$
  Q  0.6645  12.5$  10.45$  19.87$
  Q  -1.3290  13.03$  10.31$  20.5$
  Q  0.6645  19.95$  11.94$  11.69$
  Q  0.6645  21.34$  12.46$  11.94$
  Q  -1.3290  20.59$  12.15$  12.17$
  Q  0.6645  13.26$  8.91$  5.07$
  Q  0.6645  12.34$  7.74$  4.46$
  Q  -1.3290  13.02$  8.27$  4.53$
  Q  0.6645  12.69$  5.39$  2.9$
  Q  0.6645  11.88$  5.97$  1.78$
  Q  -1.3290  12.02$  5.46$  2.41$
  Q  0.6645  17.83$  10.14$  15.73$
  Q  0.6645  19.37$  10.32$  15.77$
  Q  -1.3290  18.62$  10.22$  15.43$
  Q  0.6645  9.94$  2.38$  9.71$
  Q  0.6645  10.31$  0.96$  9.79$
  Q  -1.3290  9.79$  1.57$  9.61$
  Q  0.6645  12.61$  2.49$  6.55$
  Q  0.6645  12.51$  0.96$  6.69$
  Q  -1.3290  12.89$  1.72$  6.78$
  Q  0.6645  15.59$  0.9$  4.52$
  Q  0.6645  14.71$  1.55$  5.63$
  Q  -1.3290  15.43$  1.35$  5.24$
  Q  0.6645  14.22$  6.89$  20.87$
  Q  0.6645  13.79$  7.12$  19.34$
  Q  -1.3290  13.96$  7.34$  20.18$
  Q  0.6645  12.25$  9.33$  15.52$
  Q  0.6645  13.53$  8.83$  16.38$
  Q  -1.3290  12.85$  9.32$  16.2$
  Q  0.6645  6.68$  5.22$  17.33$
  Q  0.6645  5.21$  5.63$  17.51$
  Q  -1.3290  6.03$  5.51$  17.79$
  Q  0.6645  15.79$  0.25$  9.9$
  Q  0.6645  14.67$  1.17$  10.24$
  Q  -1.3290  15.02$  0.52$  9.83$
  Q  0.6645  14.62$  18.15$  3.93$
  Q  0.6645  14.66$  18.52$  2.46$
  Q  -1.3290  14.35$  18.12$  3.12$
  Q  0.6645  7.86$  13.98$  16.12$
  Q  0.6645  6.74$  13.61$  17.11$
  Q  -1.3290  7.18$  14.14$  16.63$
  Q  0.6645  3.13$  15.44$  9.65$
  Q  0.6645  4.5$  15.14$  9.45$
  Q  -1.3290  3.75$  14.96$  9.76$
  Q  0.6645  13.23$  20.01$  13.13$
  Q  0.6645  11.97$  19.03$  12.83$
  Q  -1.3290  12.45$  19.65$  13.27$
  Q  0.6645  11.8$  13.51$  0.84$
  Q  0.6645  12.89$  14.42$  1.47$
  Q  -1.3290  12.13$  14.04$  1.4$
  Q  0.6645  19.1$  15.53$  12.14$
  Q  0.6645  19.8$  16.85$  12.71$
  Q  -1.3290  19.51$  16.3$  12.14$
  Q  0.6645  12.68$  20.32$  6.44$
  Q  0.6645  11.98$  21.29$  5.43$
  Q  -1.3290  12.18$  20.96$  6.17$
  Q  0.6645  1.35$  12.97$  14.85$
  Q  0.6645  1.75$  13.64$  13.62$
  Q  -1.3290  1.9$  13.15$  14.26$
  Q  0.6645  11.19$  17.36$  5.86$
  Q  0.6645  11.82$  16.2$  5.22$
  Q  -1.3290  11.84$  16.92$  5.61$
  Q  0.6645  10.76$  20.8$  16.07$
  Q  0.6645  11.8$  20.3$  15.1$
  Q  -1.3290  11.52$  20.62$  15.84$
  Q  0.6645  6.61$  15.62$  12.49$
  Q  0.6645  7.91$  16.37$  12.21$
  Q  -1.3290  7.42$  15.76$  12.56$
  Q  0.6645  4.36$  6.86$  14.24$
  Q  0.6645  5.52$  5.84$  14.02$
  Q  -1.3290  5.14$  6.62$  13.99$
  Q  0.6645  13.74$  11.07$  2.69$
  Q  0.6645  12.26$  11.73$  2.75$
  Q  -1.3290  12.93$  11.26$  2.99$
  Q  0.6645  5.08$  3.28$  15.62$
  Q  0.6645  4.6$  2.4$  16.69$
  Q  -1.3290  4.48$  2.94$  16.06$
  Q  0.6645  6.31$  11.47$  16.07$
  Q  0.6645  6.87$  10.53$  17.01$
  Q  -1.3290  6.69$  11.28$  16.76$
  Q  0.6645  15.18$  15.58$  12.11$
  Q  0.6645  16.15$  14.38$  11.63$
  Q  -1.3290  15.4$  14.83$  11.76$
  Q  0.6645  1.83$  17.12$  8.12$
  Q  0.6645  1.37$  16.91$  9.56$
  Q  -1.3290  1.81$  16.74$  8.85$
  Q  0.6645  14.26$  17.66$  12.46$
  Q  0.6645  14.6$  16.76$  13.69$
  Q  -1.3290  14.72$  17.13$  12.93$
  Q  0.6645  16.57$  7.39$  16.06$
  Q  0.6645  16.22$  5.91$  16.2$
  Q  -1.3290  16.36$  6.69$  16.47$
  Q  0.6645  13.53$  18.13$  5.88$
  Q  0.6645  14.49$  18.68$  6.82$
  Q  -1.3290  14.12$  18.67$  6.11$
  Q  0.6645  5.95$  15.59$  7.21$
  Q  0.6645  6.1$  16.05$  8.74$
  Q  -1.3290  5.7$  15.82$  8.01$
  Q  0.6645  17.97$  11.54$  10.46$
  Q  0.6645  18.96$  11.11$  9.54$
  Q  -1.3290  18.69$  11.62$  10.09$
  Q  0.6645  1.42$  15.77$  6.54$
  Q  0.6645  1.77$  14.28$  6.92$
  Q  -1.3290  1.45$  14.91$  6.45$
  Q  0.6645  3.87$  7.57$  5.29$
  Q  0.6645  3.3$  6.27$  5.61$
  Q  -1.3290  3.55$  7.06$  5.81$
  Q  0.6645  11.6$  8.89$  18.19$
  Q  0.6645  10.41$  8.61$  19.07$
  Q  -1.3290  11.01$  9.1$  18.72$
  Q  0.6645  8.8$  11.13$  21.56$
  Q  0.6645  8.4$  9.97$  22.38$
  Q  -1.3290  8.29$  10.52$  21.77$
  Q  0.6645  18.45$  13.45$  11.15$
  Q  0.6645  18.37$  13.6$  12.77$
  Q  -1.3290  18.2$  13.79$  11.92$
  Q  0.6645  11.36$  20.72$  10.73$
  Q  0.6645  11.23$  20.94$  12.16$
  Q  -1.3290  11.01$  21.05$  11.4$
  Q  0.6645  5.99$  7.11$  19.45$
  Q  0.6645  5.3$  8.44$  19.98$
  Q  -1.3290  5.54$  7.6$  20.02$
  Q  0.6645  2.63$  15.35$  3.61$
  Q  0.6645  3.06$  15.05$  5.08$
  Q  -1.3290  3.15$  15.08$  4.24$
  Q  0.6645  4.86$  9.43$  3.31$
  Q  0.6645  5.49$  8.08$  2.7$
  Q  -1.3290  5.18$  8.62$  3.31$
  Q  0.6645  13.67$  5.7$  17.82$
  Q  0.6645  14.8$  6.64$  17.51$
  Q  -1.3290  13.99$  6.43$  17.63$
  Q  0.6645  14.54$  11.91$  20.39$
  Q  0.6645  14.97$  12.73$  19.24$
  Q  -1.3290  15.1$  12.41$  19.99$
  Q  0.6645  7.63$  7.75$  14.24$
  Q  0.6645  8.43$  6.7$  14.76$
  Q  -1.3290  8.23$  7.49$  14.67$
  Q  0.6645  15.4$  7.43$  1.03$
  Q  0.6645  16.56$  8.29$  0.36$
  Q  -1.3290  15.92$  8.14$  0.92$
  Q  0.6645  12.42$  21.1$  8.33$
  Q  0.6645  13.44$  21.22$  9.44$
  Q  -1.3290  12.74$  20.96$  9.09$
  Q  0.6645  2.56$  12.27$  8.11$
  Q  0.6645  3.47$  13.41$  8.35$
  Q  -1.3290  2.91$  12.99$  7.91$
  Q  0.6645  19.63$  15.91$  10.16$
  Q  0.6645  18.27$  15.63$  9.35$
  Q  -1.3290  19.13$  15.73$  9.47$
  Q  0.6645  15.32$  5.67$  3.68$
  Q  0.6645  14.12$  6.57$  3.99$
  Q  -1.3290  14.47$  5.86$  3.74$
  Q  0.6645  5.77$  2.37$  10.87$
  Q  0.6645  5.36$  0.91$  10.59$
  Q  -1.3290  5.72$  1.57$  11.04$
  Q  0.6645  1.88$  9.83$  16.78$
  Q  0.6645  1.74$  8.76$  15.8$
  Q  -1.3290  1.54$  9.18$  16.42$
  Q  0.6645  8.03$  19.66$  12.51$
  Q  0.6645  7.58$  18.51$  13.5$
  Q  -1.3290  7.95$  18.84$  12.79$
  Q  0.6645  8.28$  8.49$  17.9$
  Q  0.6645  8.01$  8.23$  16.52$
  Q  -1.3290  7.84$  8.6$  17.22$
  Q  0.6645  11$  3.54$  5.53$
  Q  0.6645  11.08$  4.76$  6.39$
  Q  -1.3290  11.41$  4.1$  6$
  Q  0.6645  10.57$  12.61$  20.45$
  Q  0.6645  10.88$  11.74$  21.55$
  Q  -1.3290  10.45$  12.31$  21.19$
  Q  0.6645  18.94$  7.03$  9.1$
  Q  0.6645  19.9$  7.61$  10.11$
  Q  -1.3290  19.64$  7.45$  9.34$
  Q  0.6645  16.59$  3.81$  15.04$
  Q  0.6645  16.93$  3.5$  16.55$
  Q  -1.3290  16.99$  3.92$  15.8$
  Q  0.6645  8.92$  1.37$  13.28$
  Q  0.6645  9.89$  0.99$  12.24$
  Q  -1.3290  9.58$  1.5$  12.82$
  Q  0.6645  1.21$  16.17$  12.37$
  Q  0.6645  2.53$  15.53$  12.74$
  Q  -1.3290  1.74$  15.77$  12.87$
  Q  0.6645  10.5$  14.58$  19.04$
  Q  0.6645  10.01$  13.36$  18.42$
  Q  -1.3290  10.06$  13.88$  19.02$
  Q  0.6645  8.59$  7.23$  20.11$
  Q  0.6645  8.6$  8.71$  20.6$
  Q  -1.3290  8.63$  8.07$  20$
  Q  0.6645  19.56$  9.19$  8.26$
  Q  0.6645  19.83$  10.38$  7.31$
  Q  -1.3290  19.38$  9.94$  7.95$
  Q  0.6645  14.12$  16.27$  2.55$
  Q  0.6645  14.8$  14.81$  2.38$
  Q  -1.3290  14.29$  15.51$  2.21$
  Q  0.6645  16.29$  16.02$  5.38$
  Q  0.6645  15.94$  17.57$  5.67$
  Q  -1.3290  16.37$  16.89$  5.34$
  Q  0.6645  17.59$  2.29$  9.76$
  Q  0.6645  16.32$  1.94$  8.81$
  Q  -1.3290  17.14$  1.98$  9.09$
  Q  0.6645  12.76$  3.22$  13.51$
  Q  0.6645  13.1$  3.26$  12.07$
  Q  -1.3290  13.26$  3.41$  12.87$
  Q  0.6645  15.83$  18.95$  8.98$
  Q  0.6645  15.88$  17.43$  8.78$
  Q  -1.3290  15.54$  18.18$  8.75$
  Q  0.6645  11.27$  7.79$  0.57$
  Q  0.6645  12.28$  7.39$  -0.4$
  Q  -1.3290  11.68$  7.22$  0.11$
  Q  0.6645  21.89$  10.61$  4.72$
  Q  0.6645  20.59$  11.2$  4.52$
  Q  -1.3290  21.37$  11.22$  4.78$
  Q  0.6645  5.92$  18.75$  14.91$
  Q  0.6645  6.51$  19.67$  15.89$
  Q  -1.3290  6.55$  19.18$  15.19$
  Q  0.6645  10.13$  12.94$  4.4$
  Q  0.6645  8.98$  11.95$  3.96$
  Q  -1.3290  9.73$  12.18$  4.32$
  Q  0.6645  11.93$  2.07$  15.44$
  Q  0.6645  10.8$  2.31$  14.4$
  Q  -1.3290  11.49$  2.51$  14.89$
  Q  0.6645  12.2$  16.82$  14.72$
  Q  0.6645  12.47$  18.32$  14.63$
  Q  -1.3290  12.45$  17.56$  15.01$
  Q  0.6645  18.34$  10.64$  3.96$
  Q  0.6645  18.7$  11.93$  4.59$
  Q  -1.3290  18.74$  11.1$  4.48$
  Q  0.6645  18.12$  17.32$  6.53$
  Q  0.6645  18.82$  17.11$  7.81$
  Q  -1.3290  18.48$  17.59$  7.21$
  Q  0.6645  4.95$  13.47$  18.41$
  Q  0.6645  3.52$  13.59$  18.59$
  Q  -1.3290  4.19$  13.58$  18.14$
  Q  0.6645  17$  3.42$  5.49$
  Q  0.6645  17.68$  4.09$  4.32$
  Q  -1.3290  17.16$  4.06$  5$
  Q  0.6645  4.06$  7.27$  8.18$
  Q  0.6645  4.68$  6.63$  9.37$
  Q  -1.3290  4.05$  6.91$  8.92$
  Q  0.6645  8.6$  4.64$  15.95$
  Q  0.6645  8.18$  4.43$  14.48$
  Q  -1.3290  8.1$  4.74$  15.25$
  Q  0.6645  0.11$  11.71$  7.86$
  Q  0.6645  0.44$  11.15$  6.51$
  Q  -1.3290  0.49$  11.17$  7.35$
  Q  0.6645  17.86$  14.05$  4.88$
  Q  0.6645  19.34$  14.39$  5.03$
  Q  -1.3290  18.69$  13.88$  4.9$
  Q  0.6645  11.98$  9.25$  2.25$
  Q  0.6645  10.44$  9.01$  2$
  Q  -1.3290  11.28$  9.08$  1.79$
  Q  0.6645  17.31$  18.53$  13.07$
  Q  0.6645  17.05$  18.16$  14.52$
  Q  -1.3290  17.35$  18.63$  13.9$
  Q  0.6645  3.77$  9.89$  12.79$
  Q  0.6645  2.91$  10.82$  13.6$
  Q  -1.3290  3.11$  10.09$  13.24$
  Q  0.6645  4.78$  14.65$  13.19$
  Q  0.6645  4.1$  14.82$  11.71$
  Q  -1.3290  4.43$  15.06$  12.51$
  Q  0.6645  9.48$  1.67$  4.46$
  Q  0.6645  8.97$  2.25$  5.75$
  Q  -1.3290  9.45$  2.24$  5.06$
  Q  0.6645  22.57$  9.64$  13.37$
  Q  0.6645  21.28$  10.45$  13.03$
  Q  -1.3290  21.76$  9.89$  13.42$
  Q  0.6645  15.48$  12.99$  4.11$
  Q  0.6645  16.53$  13.16$  3.04$
  Q  -1.3290  15.92$  13.44$  3.58$
  Q  0.6645  6.76$  20.28$  6.6$
  Q  0.6645  6.46$  18.71$  6.35$
  Q  -1.3290  6.94$  19.47$  6.42$
  Q  0.6645  6.36$  3.83$  12.95$
  Q  0.6645  5.08$  3.24$  13.04$
  Q  -1.3290  5.6$  3.86$  13.12$
  Q  0.6645  14.49$  14.05$  13.09$
  Q  0.6645  14.8$  14.4$  14.58$
  Q  -1.3290  14.31$  14.1$  13.91$
  Q  0.6645  4.7$  10.7$  20.23$
  Q  0.6645  3.88$  10.18$  18.99$
  Q  -1.3290  4.49$  10.19$  19.59$
  Q  0.6645  13.48$  2.48$  9.01$
  Q  0.6645  14.11$  3.6$  9.95$
  Q  -1.3290  13.58$  2.97$  9.73$
  Q  0.6645  20.25$  13.22$  15.2$
  Q  0.6645  21.12$  12.52$  14.18$
  Q  -1.3290  20.95$  12.89$  14.92$
  Q  0.6645  11.07$  19.4$  19.1$
  Q  0.6645  11.36$  19.38$  17.55$
  Q  -1.3290  11.32$  19.07$  18.35$
  Q  0.6645  9.62$  18.72$  10.2$
  Q  0.6645  9.36$  18.82$  8.69$
  Q  -1.3290  9.15$  18.82$  9.49$
  Q  0.6645  3.19$  16.33$  16.19$
  Q  0.6645  4.19$  15.26$  16.91$
  Q  -1.3290  3.95$  15.95$  16.42$
  Q  0.6645  18.68$  6.97$  4.42$
  Q  0.6645  19.4$  7.09$  3.13$
  Q  -1.3290  19.36$  6.99$  3.95$
  Q  0.6645  8.02$  4.4$  11.46$
  Q  0.6645  8.71$  3.19$  12.12$
  Q  -1.3290  8.21$  3.87$  12.09$
  Q  0.6645  8.55$  15$  19.93$
  Q  0.6645  7.82$  16.37$  20.22$
  Q  -1.3290  7.93$  15.51$  20.27$
  Q  0.6645  10.72$  4.82$  10.67$
  Q  0.6645  11.6$  3.79$  9.83$
  Q  -1.3290  10.89$  4.16$  10.11$
  Q  0.6645  13.68$  17.17$  16.7$
  Q  0.6645  14.16$  17.29$  18.09$
  Q  -1.3290  14.09$  16.91$  17.36$
  Q  0.6645  7.06$  18.51$  19.43$
  Q  0.6645  8.19$  17.76$  18.73$
  Q  -1.3290  7.77$  18.08$  19.39$
  Q  0.6645  8.49$  9.9$  5.49$
  Q  0.6645  7.1$  9.87$  5.08$
  Q  -1.3290  7.87$  9.58$  5.08$
  Q  0.6645  1.44$  5.68$  9.9$
  Q  0.6645  2.75$  6.25$  10.29$
  Q  -1.3290  2.05$  5.84$  10.43$
  Q  0.6645  4.4$  13.42$  14.79$
  Q  0.6645  5.89$  13.86$  15.01$
  Q  -1.3290  5.22$  13.53$  14.6$
  Q  0.6645  15.84$  19.74$  13.87$
  Q  0.6645  15.56$  21.22$  14.35$
  Q  -1.3290  15.47$  20.51$  13.89$
  Q  0.6645  8.28$  8.75$  3.15$
  Q  0.6645  8$  7.78$  1.95$
  Q  -1.3290  8.37$  8.45$  2.34$
  Q  0.6645  8.73$  17.57$  6.49$
  Q  0.6645  8.92$  18.95$  6.45$
  Q  -1.3290  9.2$  18.2$  6.59$
  Q  0.6645  1.41$  9.48$  7.65$
  Q  0.6645  2.25$  8.34$  7.12$
  Q  -1.3290  1.77$  8.74$  7.68$
  Q  0.6645  6.16$  19.52$  11.19$
  Q  0.6645  4.98$  18.99$  11.97$
  Q  -1.3290  5.42$  19.1$  11.29$
  Q  0.6645  2$  12.93$  10.73$
  Q  0.6645  0.6$  13.5$  10.49$
  Q  -1.3290  1.25$  13.2$  10.94$
  Q  0.6645  16.08$  11.07$  6.42$
  Q  0.6645  17.63$  11$  6.81$
  Q  -1.3290  16.81$  11.24$  6.91$
  Q  0.6645  17.47$  9.05$  7.79$
  Q  0.6645  15.99$  8.87$  7.49$
  Q  -1.3290  16.77$  8.65$  7.57$
  Q  0.6645  14.29$  14.83$  17.78$
  Q  0.6645  13.51$  13.54$  17.59$
  Q  -1.3290  14.2$  14.03$  17.62$
  Q  0.6645  15.91$  13.17$  17.03$
  Q  0.6645  17.2$  12.33$  17.28$
  Q  -1.3290  16.59$  12.7$  16.83$
  Q  0.6645  19.97$  8.31$  14.68$
  Q  0.6645  19.99$  6.81$  14.64$
  Q  -1.3290  20$  7.52$  15.02$
  Q  0.6645  16.63$  5.44$  9.45$
  Q  0.6645  16.95$  6.82$  8.78$
  Q  -1.3290  17.12$  6.05$  9.06$
  Q  0.6645  16.89$  7.63$  5.64$
  Q  0.6645  16.91$  6.13$  5.29$
  Q  -1.3290  16.96$  6.96$  5.11$
  Q  0.6645  16.81$  8.63$  4.09$
  Q  0.6645  16.74$  9.04$  2.57$
  Q  -1.3290  16.7$  9.17$  3.46$
  Q  0.6645  11.79$  13.25$  16.91$
  Q  0.6645  11.71$  11.76$  16.76$
  Q  -1.3290  12.06$  12.47$  17$
  Q  0.6645  14.36$  5.29$  13.48$
  Q  0.6645  15.56$  6.17$  13.9$
  Q  -1.3290  14.73$  5.99$  13.78$
  Q  0.6645  17.82$  9.69$  13.49$
  Q  0.6645  16.6$  9.3$  12.63$
  Q  -1.3290  17.42$  9.3$  12.86$
  Q  0.6645  5.64$  5.53$  3.38$
  Q  0.6645  6.59$  4.2$  3.6$
  Q  -1.3290  6.35$  5.03$  3.54$
  Q  0.6645  19.1$  8.39$  12.21$
  Q  0.6645  20.61$  8.72$  12.61$
  Q  -1.3290  19.97$  8.25$  12.24$
  Q  0.6645  19.23$  15.73$  15.84$
  Q  0.6645  19.05$  15.31$  17.32$
  Q  -1.3290  18.92$  15.79$  16.6$
  Q  0.6645  9.17$  16.76$  3.99$
  Q  0.6645  9.61$  17$  2.56$
  Q  -1.3290  9.37$  17.23$  3.34$
  Q  0.6645  3.83$  10.57$  10.29$
  Q  0.6645  2.45$  10.29$  9.44$
  Q  -1.3290  3.14$  10.73$  9.77$
  Q  0.6645  17.54$  7.22$  13.04$
  Q  0.6645  17.87$  5.74$  13.3$
  Q  -1.3290  17.38$  6.41$  13.02$
  Q  0.6645  16.74$  2.72$  12.88$
  Q  0.6645  15.36$  3.05$  13.25$
  Q  -1.3290  16.15$  2.87$  13.42$
  Q  0.6645  18.66$  4.36$  6.45$
  Q  0.6645  18.61$  4.87$  7.88$
  Q  -1.3290  18.97$  4.58$  7.19$
  Q  0.6645  8.59$  2.03$  8.12$
  Q  0.6645  7.86$  3.19$  7.3$
  Q  -1.3290  8.07$  2.41$  7.47$
  Q  0.6645  -0.02$  6.69$  12.83$
  Q  0.6645  1.23$  6.28$  12.09$
  Q  -1.3290  0.72$  6.37$  12.77$
  Q  0.6645  10.33$  15.6$  16.91$
  Q  0.6645  11.9$  15.66$  17.14$
  Q  -1.3290  11.16$  15.3$  16.91$
  Q  0.6645  6.56$  4.62$  8.91$
  Q  0.6645  5.19$  4.11$  8.5$
  Q  -1.3290  5.82$  4.24$  9.03$
  Q  0.6645  11.07$  17.15$  19.19$
  Q  0.6645  11.52$  16.65$  20.53$
  Q  -1.3290  11.04$  16.64$  19.82$
  Q  0.6645  16.21$  9.48$  17.41$
  Q  0.6645  15.75$  10.51$  16.32$
  Q  -1.3290  16.13$  9.82$  16.63$
  Q  0.6645  6.35$  12.6$  3.42$
  Q  0.6645  7.49$  13.05$  2.74$
  Q  -1.3290  7.13$  12.51$  3.18$
  Q  0.6645  16.49$  15.1$  8.25$
  Q  0.6645  15.86$  15.08$  9.58$
  Q  -1.3290  16.42$  15.32$  9.05$
  Q  0.6645  17.46$  11.61$  1.88$
  Q  0.6645  17.89$  12.67$  1.12$
  Q  -1.3290  17.84$  12.28$  1.84$
  Q  0.6645  10.75$  15.32$  1.19$
  Q  0.6645  10.11$  15.97$  -0.09$
  Q  -1.3290  10.2$  15.85$  0.77$
  Q  0.6645  11.03$  6.17$  3.88$
  Q  0.6645  9.9$  6.58$  4.87$
  Q  -1.3290  10.69$  6.58$  4.57$
  Q  0.6645  11.62$  14.48$  3.62$
  Q  0.6645  12.05$  14.16$  5.02$
  Q  -1.3290  11.53$  14.48$  4.45$
  Q  0.6645  4.37$  17.08$  13.21$
  Q  0.6645  4.61$  17$  14.6$
  Q  -1.3290  4.62$  17.41$  13.9$
  Q  0.6645  15.65$  16.8$  16.33$
  Q  0.6645  17.02$  16.24$  15.85$
  Q  -1.3290  16.24$  16.59$  15.75$
  Q  0.6645  7.29$  12.97$  5.94$
  Q  0.6645  8.39$  13.57$  6.61$
  Q  -1.3290  7.61$  13.54$  6.41$
  Q  0.6645  2.81$  4.27$  7.01$
  Q  0.6645  3.29$  5.2$  8.12$
  Q  -1.3290  3.02$  4.44$  7.78$
  Q  0.6645  21.88$  14.08$  8.33$
  Q  0.6645  20.46$  14.09$  8.85$
  Q  -1.3290  21.2$  13.75$  8.65$
  Q  0.6645  8.75$  11.28$  16.88$
  Q  0.6645  9.7$  10.55$  17.63$
  Q  -1.3290  9.49$  11.16$  17.13$
*
