! NoMOPrint PrintBasis #MINIPRINT SMALLPRINT LARGEPRINT
! ALLPOP XYZFILE
#! BP86 3-21G   TightSCF
! ENGRAD
! B3LYP NormalPNO PModel #DecontractAux
#! VerySlowConv 
 %maxcore 5000
 %scf  maxiter   500  end 

%pal
    nprocs 32
end

%basis
    NewGTO O    # New basis for oxygen
        "aug-cc-pVTZ"
    end
    NewGTO C    # New basis for carbon
        "aug-cc-pVTZ"
    end
    NewGTO H    # New basis for hydrogen
        "cc-pVTZ"
    end
end

* xyz 0   1
  C  12.81  11.18  11.71  #1
  H  12.48  11.82  12.49  #2
  H  13.48  11.78  11.03  #3
  C  11.63  10.47  11.01  #4
  H  12.02  9.62  10.35  #5
  H  11.08  9.96  11.86  #6
  C  10.68  11.51  10.39  #7
  H  11.28  12.15  9.65  #8
  H  10.3  12.23  11.16  #9
  C  9.59  10.76  9.68  #10
  H  8.97  10.28  10.43  #11
  H  10.14  10.02  9.05  #12
  O  8.96  11.61  8.71  #13
  H  8.13  11.92  9.07  #14
  O  13.72  10.21  12.29  #15
  H  13.38  9.92  13.15  #16
  O  16.42  9.8  13.53  #17
  H  15.55  10.11  13.22  #18
  H  17.13  10.25  13.06  #19
  O  12.66  11.71  7.87  #20
  H  13.37  11.76  7.2  #21
  H  11.79  12.05  7.61  #22
  O  15.18  8.53  10.51  #23
  H  14.42  8.32  9.92  #24
  H  14.79  9.16  11.19  #25
  O  7.96  13.19  11.14  #26
  H  8.45  13.64  10.42  #27
  H  7.15  12.73  10.93  #28
  O  9.22  7.43  11.84  #29
  H  9.94  6.97  12.31  #30
  H  9.19  8.33  12.14  #31
  O  6.19  12.11  9.3  #32
  H  5.73  12.96  9.3  #33
  H  6.4  11.93  8.37  #34
  O  6.33  10.89  12.93  #35
  H  6.01  10.48  13.73  #36
  H  6.48  11.82  13.16  #37
  O  11.77  9.25  14.44  #38
  H  12.21  9.27  15.29  #39
  H  11.85  8.32  14.25  #40
  O  16.22  6.28  12.1  #41
  H  15.83  6.94  11.58  #42
  H  15.85  5.5  11.6  #43
  O  16.92  7.48  15.24  #44
  H  16.8  8.43  14.98  #45
  H  17.5  7.48  16  #46
  O  11.54  9.17  7.46  #47
  H  10.76  9.55  7.07  #48
  H  12.21  9.83  7.35  #49
  O  11.9  6.19  13.12  #50
  H  11.87  5.95  12.17  #51
  H  11.46  5.5  13.65  #52
  O  12.46  14.12  13.84  #53
  H  13.42  13.79  13.79  #54
  H  11.92  13.32  14.02  #55
  O  10.37  14.54  9.41  #56
  H  9.94  15.32  9.11  #57
  H  10.74  14.81  10.29  #58
  O  14.3  13.03  5.74  #59
  H  13.49  13.51  5.52  #60
  H  14.36  12.38  5  #61
  O  10.17  12.69  6.51  #62
  H  10.09  11.83  5.99  #63
  H  9.81  12.6  7.38  #64
  O  14.42  13.82  8.77  #65
  H  13.73  13.2  8.58  #66
  H  15.26  13.33  8.54  #67
  O  18.74  10.21  11.93  #68
  H  19.43  10.09  12.59  #69
  H  18.44  9.37  11.59  #70
  O  10.51  11.84  14.38  #71
  H  10.06  12.31  15.09  #72
  H  10.93  11.1  14.73  #73
  O  11.59  5.39  10.55  #74
  H  10.65  5.46  10.37  #75
  H  11.91  6.12  9.94  #76
  O  12.95  7.21  9.07  #77
  H  13.58  6.7  8.51  #78
  H  12.44  7.79  8.5  #79
  O  8.85  9.85  12.86  #80
  H  7.95  10.05  12.61  #81
  H  9.23  10.67  13.21  #82
  O  17.85  8.41  10.16  #83
  H  18.24  7.49  10.01  #84
  H  16.93  8.18  10.12  #85
  O  6.52  7.42  12.15  #86
  H  7.37  7.29  12.55  #87
  H  6.04  8  12.66  #88
  O  7.93  15.4  13.12  #89
  H  8.04  14.78  12.39  #90
  H  8.81  15.59  13.49  #91
  O  8.25  7.94  9.17  #92
  H  8.46  7.85  10.16  #93
  H  7.29  8.08  9.17  #94
  Q  0.6645  20.42$  15.21$  7.07$
  Q  0.6645  20.16$  16.18$  8.35$
  Q  -1.3290  20.3$  15.96$  7.53$
  Q  0.6645  11.51$  15.91$  15.17$
  Q  0.6645  10.61$  17.09$  15.21$
  Q  -1.3290  10.78$  16.29$  15.06$
  Q  0.6645  13.31$  15.58$  8.08$
  Q  0.6645  11.81$  15.48$  8.23$
  Q  -1.3290  12.54$  15.75$  7.88$
  Q  0.6645  5.59$  2.9$  10.38$
  Q  0.6645  7.02$  3.31$  10.01$
  Q  -1.3290  6.2$  3.07$  9.87$
  Q  0.6645  9.27$  2.63$  15.25$
  Q  0.6645  8.18$  1.93$  14.4$
  Q  -1.3290  8.65$  2.07$  15.1$
  Q  0.6645  0.28$  9.74$  5.73$
  Q  0.6645  0.78$  9.17$  4.28$
  Q  -1.3290  0.36$  9.17$  5.06$
  Q  0.6645  15.75$  0.82$  11.15$
  Q  0.6645  15.55$  2.26$  11.58$
  Q  -1.3290  15.93$  1.64$  11.18$
  Q  0.6645  22.13$  10.87$  13.83$
  Q  0.6645  21.01$  11.86$  13.39$
  Q  -1.3290  21.44$  11.12$  13.39$
  Q  0.6645  13.65$  16.78$  17.56$
  Q  0.6645  12.28$  17.31$  17.27$
  Q  -1.3290  12.94$  16.86$  17.11$
  Q  0.6645  16.92$  15.68$  10.84$
  Q  0.6645  17.87$  14.68$  11.37$
  Q  -1.3290  17.63$  15.31$  10.88$
  Q  0.6645  2.18$  13.14$  11.09$
  Q  0.6645  2$  14.74$  11.54$
  Q  -1.3290  2.11$  14.02$  11.01$
  Q  0.6645  17.39$  8.18$  18.16$
  Q  0.6645  18.83$  7.57$  18.63$
  Q  -1.3290  18.2$  7.81$  18.06$
  Q  0.6645  8.2$  17.75$  5.33$
  Q  0.6645  7.56$  16.3$  5.62$
  Q  -1.3290  7.6$  17.19$  5.57$
  Q  0.6645  5.42$  8.58$  2.24$
  Q  0.6645  6.1$  7.55$  3.17$
  Q  -1.3290  6.05$  8.3$  2.79$
  Q  0.6645  16.82$  14.93$  6.47$
  Q  0.6645  15.89$  14.03$  5.74$
  Q  -1.3290  16.5$  14.6$  5.76$
  Q  0.6645  19.97$  13.03$  5.78$
  Q  0.6645  18.51$  13.71$  5.82$
  Q  -1.3290  19.36$  13.64$  5.96$
  Q  0.6645  21.76$  5.75$  15.18$
  Q  0.6645  20.5$  6.78$  15.07$
  Q  -1.3290  20.98$  6.1$  15.34$
  Q  0.6645  19.14$  13.79$  18.39$
  Q  0.6645  18.97$  12.89$  17.04$
  Q  -1.3290  19.39$  13.32$  17.71$
  Q  0.6645  7.13$  9.18$  5.54$
  Q  0.6645  6.8$  9.61$  4.12$
  Q  -1.3290  6.99$  9.74$  4.94$
  Q  0.6645  10.8$  6.75$  4.55$
  Q  0.6645  11.55$  6.76$  5.95$
  Q  -1.3290  10.88$  6.73$  5.42$
  Q  0.6645  10.75$  3.64$  3.81$
  Q  0.6645  9.96$  2.94$  2.63$
  Q  -1.3290  10.53$  3.45$  3$
  Q  0.6645  15.71$  14.17$  19.6$
  Q  0.6645  14.57$  13.66$  18.91$
  Q  -1.3290  15.37$  13.75$  19$
  Q  0.6645  17.05$  2.82$  16.14$
  Q  0.6645  16.42$  2.27$  17.4$
  Q  -1.3290  16.88$  2.81$  16.96$
  Q  0.6645  18.23$  6.93$  12.91$
  Q  0.6645  18.29$  5.87$  12$
  Q  -1.3290  18.64$  6.38$  12.49$
  Q  0.6645  0.36$  14.1$  14.8$
  Q  0.6645  1.72$  13.45$  14.95$
  Q  -1.3290  1.15$  14.05$  15.08$
  Q  0.6645  5.39$  18.4$  15.37$
  Q  0.6645  3.99$  18.16$  15.81$
  Q  -1.3290  4.74$  17.92$  15.56$
  Q  0.6645  4.84$  1.27$  12.38$
  Q  0.6645  4.83$  2.7$  12.34$
  Q  -1.3290  4.66$  1.97$  11.99$
  Q  0.6645  1.25$  9.65$  1.91$
  Q  0.6645  2.4$  9.91$  3.11$
  Q  -1.3290  1.74$  9.53$  2.67$
  Q  0.6645  8.36$  1.91$  6.87$
  Q  0.6645  7.67$  3.21$  6.23$
  Q  -1.3290  8.1$  2.43$  6.23$
  Q  0.6645  10.23$  14.49$  0.77$
  Q  0.6645  9.29$  15.7$  0.84$
  Q  -1.3290  9.76$  15.1$  0.42$
  Q  0.6645  17.53$  11.87$  15.82$
  Q  0.6645  18.87$  11.06$  15.73$
  Q  -1.3290  18.35$  11.73$  15.57$
  Q  0.6645  1.64$  16.77$  5.25$
  Q  0.6645  2.79$  16.18$  4.31$
  Q  -1.3290  2.28$  16.8$  4.67$
  Q  0.6645  6.31$  5.29$  1.31$
  Q  0.6645  7.15$  6.63$  1.47$
  Q  -1.3290  6.95$  5.87$  1.13$
  Q  0.6645  4.8$  14.96$  9.38$
  Q  0.6645  3.46$  14.21$  9.78$
  Q  -1.3290  4.27$  14.29$  9.48$
  Q  0.6645  11.64$  8.45$  2.31$
  Q  0.6645  10.18$  8.71$  2.67$
  Q  -1.3290  10.98$  8.51$  2.82$
  Q  0.6645  17.71$  17.54$  6.19$
  Q  0.6645  18.65$  16.98$  7.1$
  Q  -1.3290  17.98$  17.38$  6.95$
  Q  0.6645  9.04$  16.84$  2.97$
  Q  0.6645  8.33$  15.52$  2.6$
  Q  -1.3290  8.59$  16.31$  2.5$
  Q  0.6645  1.29$  12.49$  5.29$
  Q  0.6645  2.21$  12.68$  6.36$
  Q  -1.3290  1.87$  12.22$  5.77$
  Q  0.6645  12.9$  1.98$  15.55$
  Q  0.6645  12.57$  1.6$  14.12$
  Q  -1.3290  12.73$  1.43$  14.94$
  Q  0.6645  15.42$  13.3$  14.35$
  Q  0.6645  15.6$  13.22$  12.87$
  Q  -1.3290  15.22$  13.48$  13.57$
  Q  0.6645  6.82$  5.6$  15.76$
  Q  0.6645  5.31$  6.03$  15.76$
  Q  -1.3290  5.99$  5.5$  15.66$
  Q  0.6645  4.1$  17.27$  9.41$
  Q  0.6645  5.54$  17.56$  9.14$
  Q  -1.3290  4.92$  17.24$  9.58$
  Q  0.6645  12.72$  4.09$  9.7$
  Q  0.6645  13$  2.71$  8.99$
  Q  -1.3290  13.18$  3.44$  9.33$
  Q  0.6645  16.85$  10.2$  5.73$
  Q  0.6645  16.35$  8.79$  6.37$
  Q  -1.3290  16.39$  9.65$  6.27$
  Q  0.6645  13.37$  20.32$  10.34$
  Q  0.6645  12.65$  19.19$  11.13$
  Q  -1.3290  12.76$  19.77$  10.48$
  Q  0.6645  4.91$  4.25$  14.25$
  Q  0.6645  3.53$  3.59$  14.17$
  Q  -1.3290  4.31$  3.79$  13.91$
  Q  0.6645  9.99$  5.18$  15.37$
  Q  0.6645  11.27$  4.46$  15.54$
  Q  -1.3290  10.62$  4.7$  15.1$
  Q  0.6645  10.22$  9.71$  18.18$
  Q  0.6645  9.4$  9.35$  16.92$
  Q  -1.3290  10.1$  9.38$  17.38$
  Q  0.6645  9.61$  18.95$  4.36$
  Q  0.6645  10.72$  17.93$  4.19$
  Q  -1.3290  9.97$  18.22$  4.47$
  Q  0.6645  19.57$  11.5$  9.19$
  Q  0.6645  19.66$  11.37$  10.61$
  Q  -1.3290  19.63$  11.8$  9.92$
  Q  0.6645  0.82$  7.69$  8.46$
  Q  0.6645  0.35$  6.36$  8.9$
  Q  -1.3290  0.3$  7.17$  8.79$
  Q  0.6645  14.36$  4.74$  8.48$
  Q  0.6645  14.64$  5.44$  6.98$
  Q  -1.3290  14.73$  5.23$  7.85$
  Q  0.6645  14.77$  17.72$  19.08$
  Q  0.6645  15.62$  16.7$  18.71$
  Q  -1.3290  14.91$  16.95$  18.98$
  Q  0.6645  11.98$  15.11$  5.59$
  Q  0.6645  11.15$  13.77$  5.72$
  Q  -1.3290  11.68$  14.34$  5.36$
  Q  0.6645  16.27$  17.51$  3.82$
  Q  0.6645  16.67$  16.36$  4.81$
  Q  -1.3290  16.78$  17.09$  4.35$
  Q  0.6645  3.56$  10.36$  9$
  Q  0.6645  4.7$  11.23$  9.9$
  Q  -1.3290  4.05$  10.65$  9.7$
  Q  0.6645  8.56$  5.45$  9.15$
  Q  0.6645  9.16$  4.03$  9.55$
  Q  -1.3290  8.89$  4.84$  9.66$
  Q  0.6645  2.42$  6.65$  6.55$
  Q  0.6645  1.11$  7.49$  6.12$
  Q  -1.3290  1.72$  6.9$  6.08$
  Q  0.6645  11.18$  20.32$  6.51$
  Q  0.6645  11.27$  21.02$  5.22$
  Q  -1.3290  11.24$  21$  6.06$
  Q  0.6645  11.85$  17.8$  7.69$
  Q  0.6645  11.89$  19.02$  8.68$
  Q  -1.3290  11.54$  18.5$  8.08$
  Q  0.6645  1.67$  9.51$  15.17$
  Q  0.6645  2.44$  10.92$  14.79$
  Q  -1.3290  1.78$  10.39$  15.11$
  Q  0.6645  7.16$  13.76$  5.87$
  Q  0.6645  8.75$  13.84$  5.87$
  Q  -1.3290  7.93$  14.1$  5.77$
  Q  0.6645  14.83$  21.07$  12.24$
  Q  0.6645  15.43$  20.43$  10.99$
  Q  -1.3290  15.02$  21.02$  11.41$
  Q  0.6645  10.29$  7.31$  22$
  Q  0.6645  9.84$  8.76$  22.49$
  Q  -1.3290  10.02$  8.13$  21.91$
  Q  0.6645  14.81$  1.93$  8.62$
  Q  0.6645  16.2$  1.37$  8.11$
  Q  -1.3290  15.33$  1.49$  8.11$
  Q  0.6645  18.5$  10.27$  4.12$
  Q  0.6645  17.88$  11.57$  3.79$
  Q  -1.3290  17.9$  10.84$  4.2$
  Q  0.6645  5.84$  11.68$  5.85$
  Q  0.6645  4.92$  12.78$  6.49$
  Q  -1.3290  5.65$  12.4$  6.28$
  Q  0.6645  4.13$  6.9$  8.05$
  Q  0.6645  3.88$  5.31$  8.18$
  Q  -1.3290  3.67$  6.15$  8.15$
  Q  0.6645  -0.38$  13.53$  8.4$
  Q  0.6645  1.1$  13.74$  7.99$
  Q  -1.3290  0.34$  13.35$  7.98$
  Q  0.6645  8.59$  7.06$  16$
  Q  0.6645  8.38$  6.19$  17.12$
  Q  -1.3290  8.53$  6.32$  16.34$
  Q  0.6645  1.96$  17.23$  10.29$
  Q  0.6645  2.11$  18.29$  9.1$
  Q  -1.3290  2.2$  17.55$  9.51$
  Q  0.6645  15.51$  11.94$  19.19$
  Q  0.6645  15.36$  11.02$  20.4$
  Q  -1.3290  15.44$  11.21$  19.59$
  Q  0.6645  21.55$  6.88$  10.83$
  Q  0.6645  20.67$  6.81$  12.14$
  Q  -1.3290  21.39$  6.77$  11.68$
  Q  0.6645  13.57$  9.92$  16.88$
  Q  0.6645  13.36$  11.19$  17.72$
  Q  -1.3290  13.5$  10.76$  17.02$
  Q  0.6645  21.21$  14.23$  13.01$
  Q  0.6645  19.84$  13.84$  13.68$
  Q  -1.3290  20.7$  13.85$  13.55$
  Q  0.6645  7.68$  5.54$  19.37$
  Q  0.6645  8.63$  6.76$  19.57$
  Q  -1.3290  8.39$  6.03$  19.28$
  Q  0.6645  15.6$  12.78$  16.92$
  Q  0.6645  15.25$  11.37$  16.43$
  Q  -1.3290  15.65$  12.12$  16.41$
  Q  0.6645  0.94$  7.63$  13.7$
  Q  0.6645  2.21$  8.12$  13.21$
  Q  -1.3290  1.73$  7.83$  13.79$
  Q  0.6645  17.9$  14.45$  9.09$
  Q  0.6645  17.22$  13.27$  8.21$
  Q  -1.3290  17.44$  14.07$  8.44$
  Q  0.6645  17.77$  2.75$  14.13$
  Q  0.6645  16.25$  2.72$  13.92$
  Q  -1.3290  16.99$  2.48$  14.27$
  Q  0.6645  15.75$  15.96$  8.79$
  Q  0.6645  16.37$  17.28$  8.21$
  Q  -1.3290  15.79$  16.77$  8.65$
  Q  0.6645  5.34$  12.02$  3.16$
  Q  0.6645  6.5$  12.86$  2.71$
  Q  -1.3290  5.76$  12.5$  2.62$
  Q  0.6645  12.87$  15.39$  11.09$
  Q  0.6645  12.12$  14.89$  12.34$
  Q  -1.3290  12.18$  15.21$  11.54$
  Q  0.6645  11.73$  13.13$  2.21$
  Q  0.6645  11.41$  14.24$  3.2$
  Q  -1.3290  11.35$  13.83$  2.47$
  Q  0.6645  14.66$  4.15$  13.06$
  Q  0.6645  13.98$  2.93$  12.57$
  Q  -1.3290  14.63$  3.36$  12.85$
  Q  0.6645  15.28$  6.53$  13.69$
  Q  0.6645  13.77$  6.3$  13.98$
  Q  -1.3290  14.61$  6.15$  14.04$
  Q  0.6645  6.1$  17.44$  4.24$
  Q  0.6645  5.11$  16.53$  3.47$
  Q  -1.3290  5.5$  17.25$  3.64$
  Q  0.6645  14.97$  5.12$  15.71$
  Q  0.6645  15.6$  4.4$  16.93$
  Q  -1.3290  15.05$  4.85$  16.5$
  Q  0.6645  13.04$  7.04$  20.83$
  Q  0.6645  12.53$  5.6$  20.89$
  Q  -1.3290  13$  6.29$  21.14$
  Q  0.6645  11.17$  7.75$  17.5$
  Q  0.6645  11.36$  6.4$  18.3$
  Q  -1.3290  11.59$  7.05$  17.76$
  Q  0.6645  12.57$  1.5$  11.49$
  Q  0.6645  11.45$  2.39$  11.98$
  Q  -1.3290  12.23$  2.09$  12.01$
  Q  0.6645  13.96$  9.12$  1.48$
  Q  0.6645  13.44$  7.68$  1.36$
  Q  -1.3290  13.38$  8.51$  1.37$
  Q  0.6645  0.29$  16.05$  7.63$
  Q  0.6645  1.45$  16.82$  7.87$
  Q  -1.3290  1.04$  16.27$  7.45$
  Q  0.6645  14.41$  17.77$  7.55$
  Q  0.6645  14.42$  19.2$  7$
  Q  -1.3290  14.34$  18.37$  6.95$
  Q  0.6645  14.9$  6.05$  21.01$
  Q  0.6645  15.74$  7.07$  20.12$
  Q  -1.3290  15.59$  6.49$  20.72$
  Q  0.6645  5.09$  17.59$  6.09$
  Q  0.6645  3.71$  17.65$  5.73$
  Q  -1.3290  4.34$  17.87$  6.23$
  Q  0.6645  16.23$  11.21$  9.14$
  Q  0.6645  16.13$  11.01$  7.6$
  Q  -1.3290  16.25$  11.48$  8.34$
  Q  0.6645  15.35$  9.27$  18.99$
  Q  0.6645  15.21$  8.07$  17.81$
  Q  -1.3290  15.47$  8.46$  18.59$
  Q  0.6645  7.04$  15.41$  18.61$
  Q  0.6645  6.68$  16.43$  17.5$
  Q  -1.3290  6.51$  15.84$  18.12$
  Q  0.6645  9.15$  14.65$  15.47$
  Q  0.6645  7.93$  13.7$  15.22$
  Q  -1.3290  8.68$  13.92$  15.54$
  Q  0.6645  1.82$  5.62$  13.17$
  Q  0.6645  0.4$  5.54$  12.57$
  Q  -1.3290  1.04$  5.28$  13.08$
  Q  0.6645  7.12$  2.86$  12.63$
  Q  0.6645  7.38$  1.38$  12.18$
  Q  -1.3290  7.36$  2.05$  12.7$
  Q  0.6645  7.67$  18.09$  8.7$
  Q  0.6645  7.1$  18.19$  7.26$
  Q  -1.3290  7.06$  18.25$  8.11$
  Q  0.6645  14.67$  15.08$  1.51$
  Q  0.6645  14.49$  15.39$  3.07$
  Q  -1.3290  14.53$  14.89$  2.36$
  Q  0.6645  8.49$  9.23$  14.71$
  Q  0.6645  7.2$  9.16$  15.5$
  Q  -1.3290  8.01$  9.02$  15.33$
  Q  0.6645  8.74$  10.49$  1.4$
  Q  0.6645  7.69$  9.42$  1.98$
  Q  -1.3290  8.46$  9.77$  1.82$
  Q  0.6645  15.66$  17.65$  13.58$
  Q  0.6645  16.49$  17.61$  12.29$
  Q  -1.3290  16.37$  17.49$  13.11$
  Q  0.6645  9.47$  1.64$  10.82$
  Q  0.6645  9.25$  3.04$  11.43$
  Q  -1.3290  9.67$  2.46$  10.99$
  Q  0.6645  20.22$  3.34$  13.8$
  Q  0.6645  19.17$  4.26$  13.38$
  Q  -1.3290  19.45$  3.53$  13.62$
  Q  0.6645  4.54$  14.1$  3.05$
  Q  0.6645  3.11$  14.51$  2.8$
  Q  -1.3290  3.87$  14.59$  3.18$
  Q  0.6645  4.08$  11.66$  13.88$
  Q  0.6645  3.06$  12.3$  13.09$
  Q  -1.3290  3.51$  12.22$  13.75$
  Q  0.6645  5.99$  10.96$  18.32$
  Q  0.6645  7.27$  11.94$  18.54$
  Q  -1.3290  6.73$  11.24$  18.67$
  Q  0.6645  19.19$  16.42$  10.44$
  Q  0.6645  20.73$  16.11$  10.48$
  Q  -1.3290  20.03$  16.59$  10.44$
  Q  0.6645  5.25$  18.77$  10.82$
  Q  0.6645  5.42$  20.08$  11.42$
  Q  -1.3290  5.49$  19.27$  11.42$
  Q  0.6645  14.51$  6.26$  2.32$
  Q  0.6645  13.48$  5.14$  1.97$
  Q  -1.3290  13.82$  5.76$  2.43$
  Q  0.6645  17.09$  6.86$  5.16$
  Q  0.6645  16.95$  6.18$  6.63$
  Q  -1.3290  16.82$  6.76$  5.99$
  Q  0.6645  12.77$  11.42$  22.03$
  Q  0.6645  12.5$  10.38$  21.05$
  Q  -1.3290  12.48$  11.18$  21.33$
  Q  0.6645  2.71$  9.21$  6.73$
  Q  0.6645  1.67$  9.84$  7.62$
  Q  -1.3290  2.38$  9.4$  7.47$
  Q  0.6645  7.16$  17.97$  11.36$
  Q  0.6645  8.04$  16.89$  11.85$
  Q  -1.3290  7.89$  17.6$  11.43$
  Q  0.6645  20.64$  13.63$  10.57$
  Q  0.6645  22.05$  14.05$  10.44$
  Q  -1.3290  21.25$  14.19$  10.45$
  Q  0.6645  20.98$  9.11$  13.55$
  Q  0.6645  20.07$  8.81$  14.71$
  Q  -1.3290  20.53$  8.6$  14.04$
  Q  0.6645  18.31$  10.02$  7.5$
  Q  0.6645  18.63$  9.32$  8.8$
  Q  -1.3290  18.81$  9.79$  8.08$
  Q  0.6645  17.91$  3.99$  10.21$
  Q  0.6645  17.29$  3.36$  11.41$
  Q  -1.3290  17.61$  3.97$  10.99$
  Q  0.6645  13.79$  13.02$  2.46$
  Q  0.6645  13.76$  11.55$  2.86$
  Q  -1.3290  13.55$  12.19$  2.39$
  Q  0.6645  3.14$  5.09$  11.03$
  Q  0.6645  3.62$  6.1$  10.05$
  Q  -1.3290  3.48$  5.81$  10.82$
  Q  0.6645  13.6$  7.43$  16.9$
  Q  0.6645  14.46$  7.49$  15.71$
  Q  -1.3290  14.13$  7.82$  16.42$
  Q  0.6645  14.73$  6.57$  5.3$
  Q  0.6645  13.63$  5.87$  4.62$
  Q  -1.3290  13.97$  6.24$  5.28$
  Q  0.6645  12.72$  12.77$  20.27$
  Q  0.6645  11.99$  13.82$  19.44$
  Q  -1.3290  12.65$  13.33$  19.64$
  Q  0.6645  8.83$  18.98$  12.83$
  Q  0.6645  9.8$  19.38$  13.99$
  Q  -1.3290  9.22$  19.51$  13.4$
  Q  0.6645  10.43$  5$  19.42$
  Q  0.6645  11.47$  4.48$  18.52$
  Q  -1.3290  11.21$  4.89$  19.17$
  Q  0.6645  11.06$  19.69$  15.48$
  Q  0.6645  11.94$  18.73$  14.68$
  Q  -1.3290  11.3$  18.93$  15.17$
  Q  0.6645  8.99$  10.42$  4.72$
  Q  0.6645  10.41$  9.73$  4.53$
  Q  -1.3290  9.86$  10.34$  4.8$
  Q  0.6645  2.16$  17.18$  12.87$
  Q  0.6645  0.82$  16.79$  12.64$
  Q  -1.3290  1.59$  16.81$  12.38$
  Q  0.6645  17.49$  19.73$  15.49$
  Q  0.6645  17.55$  18.33$  14.65$
  Q  -1.3290  17.63$  18.86$  15.33$
  Q  0.6645  18.91$  5.77$  8.37$
  Q  0.6645  20.06$  6.9$  8.67$
  Q  -1.3290  19.44$  6.3$  8.83$
  Q  0.6645  11.6$  8.7$  20.7$
  Q  0.6645  12.11$  8.38$  19.15$
  Q  -1.3290  12.16$  8.69$  19.99$
  Q  0.6645  14.02$  19.14$  14.78$
  Q  0.6645  13.57$  17.75$  15.34$
  Q  -1.3290  13.91$  18.3$  14.78$
  Q  0.6645  8.83$  13.99$  18.85$
  Q  0.6645  8.44$  13.55$  17.38$
  Q  -1.3290  8.45$  13.55$  18.24$
  Q  0.6645  7.67$  5.75$  6.4$
  Q  0.6645  6.5$  4.81$  6.75$
  Q  -1.3290  7.24$  5.04$  6.38$
  Q  0.6645  16.01$  18.15$  9.98$
  Q  0.6645  16.99$  19.24$  10.21$
  Q  -1.3290  16.37$  18.73$  10.42$
  Q  0.6645  8.04$  4.85$  11.41$
  Q  0.6645  6.71$  5.35$  12.02$
  Q  -1.3290  7.33$  4.78$  11.9$
  Q  0.6645  12.61$  0.18$  8.76$
  Q  0.6645  11.27$  0.86$  9.24$
  Q  -1.3290  12.12$  0.68$  9.26$
  Q  0.6645  4.98$  10.45$  15.91$
  Q  0.6645  4.57$  9.07$  15.51$
  Q  -1.3290  4.98$  9.79$  15.42$
  Q  0.6645  16.84$  15.57$  15.99$
  Q  0.6645  16.48$  15.86$  14.54$
  Q  -1.3290  16.87$  15.43$  15.18$
  Q  0.6645  19.96$  5.19$  17.25$
  Q  0.6645  18.71$  5.94$  17.75$
  Q  -1.3290  19.42$  5.43$  17.85$
  Q  0.6645  1.14$  11.11$  11.78$
  Q  0.6645  2.59$  10.95$  11.34$
  Q  -1.3290  1.95$  11.3$  11.73$
  Q  0.6645  20.81$  10.04$  7.71$
  Q  0.6645  21.98$  11.24$  7.83$
  Q  -1.3290  21.61$  10.44$  7.78$
  Q  0.6645  3.51$  7.73$  11.74$
  Q  0.6645  3.8$  9.19$  11.16$
  Q  -1.3290  3.58$  8.59$  11.74$
  Q  0.6645  8.01$  9.75$  19.7$
  Q  0.6645  8.84$  8.66$  20.51$
  Q  -1.3290  8.36$  8.96$  19.84$
  Q  0.6645  11.99$  17.05$  12.25$
  Q  0.6645  13.23$  17.75$  12.94$
  Q  -1.3290  12.56$  17.69$  12.43$
  Q  0.6645  5.76$  12.24$  22.24$
  Q  0.6645  5.98$  12.05$  20.74$
  Q  -1.3290  6.14$  12.38$  21.5$
  Q  0.6645  18.16$  12.82$  13.72$
  Q  0.6645  17.69$  14.21$  13.76$
  Q  -1.3290  18.07$  13.58$  13.39$
  Q  0.6645  12.31$  2.65$  17.45$
  Q  0.6645  13.38$  3.83$  16.95$
  Q  -1.3290  12.6$  3.38$  17.03$
  Q  0.6645  16.61$  4.62$  8.04$
  Q  0.6645  17.75$  3.8$  7.35$
  Q  -1.3290  17.42$  4.48$  7.75$
  Q  0.6645  4.18$  16.15$  15.26$
  Q  0.6645  2.8$  15.26$  15.23$
  Q  -1.3290  3.66$  15.45$  15.17$
  Q  0.6645  9.03$  17.19$  9.93$
  Q  0.6645  9.9$  17.7$  8.79$
  Q  -1.3290  9.31$  17.2$  9.14$
  Q  0.6645  20.56$  16.74$  14.23$
  Q  0.6645  20.39$  16.95$  12.77$
  Q  -1.3290  20.81$  16.95$  13.48$
  Q  0.6645  11.27$  15.58$  18.22$
  Q  0.6645  10.73$  16.18$  19.49$
  Q  -1.3290  10.85$  15.56$  18.92$
  Q  0.6645  14.93$  14.53$  10.49$
  Q  0.6645  14.68$  14.86$  12.03$
  Q  -1.3290  14.9$  15.02$  11.2$
  Q  0.6645  20.51$  9.76$  16.87$
  Q  0.6645  19.16$  9.1$  17.09$
  Q  -1.3290  19.74$  9.53$  16.62$
  Q  0.6645  12.92$  2.51$  5.86$
  Q  0.6645  14.34$  2.19$  6.47$
  Q  -1.3290  13.76$  2.33$  5.86$
  Q  0.6645  8.1$  14.03$  3.83$
  Q  0.6645  8.78$  13.64$  2.49$
  Q  -1.3290  8.15$  13.87$  3.01$
  Q  0.6645  5.27$  3.28$  8.01$
  Q  0.6645  4.27$  3.01$  6.92$
  Q  -1.3290  4.76$  3.49$  7.41$
  Q  0.6645  5.99$  20.07$  7.82$
  Q  0.6645  4.82$  19.7$  6.94$
  Q  -1.3290  5.29$  20.24$  7.4$
  Q  0.6645  17.62$  17.27$  17.02$
  Q  0.6645  17.95$  16.18$  18.09$
  Q  -1.3290  17.43$  16.6$  17.54$
  Q  0.6645  4$  11$  18.09$
  Q  0.6645  4.46$  12.41$  17.6$
  Q  -1.3290  4.37$  11.56$  17.59$
  Q  0.6645  10.04$  12.05$  18.68$
  Q  0.6645  11.21$  11.53$  19.44$
  Q  -1.3290  10.43$  11.51$  19.17$
  Q  0.6645  9.01$  7.26$  6.05$
  Q  0.6645  8.16$  7.75$  7.33$
  Q  -1.3290  8.27$  7.48$  6.49$
  Q  0.6645  20.04$  15.56$  16.39$
  Q  0.6645  18.75$  15.76$  15.76$
  Q  -1.3290  19.5$  16.01$  15.95$
  Q  0.6645  8.36$  12.08$  21.43$
  Q  0.6645  9.61$  11.42$  20.95$
  Q  -1.3290  9.11$  11.73$  21.54$
  Q  0.6645  14.68$  9.75$  4.97$
  Q  0.6645  13.52$  9.44$  4.15$
  Q  -1.3290  14.16$  9.93$  4.35$
  Q  0.6645  10.96$  20.56$  10.73$
  Q  0.6645  9.76$  20.57$  11.63$
  Q  -1.3290  10.14$  20.63$  10.9$
  Q  0.6645  5.3$  13.91$  14.55$
  Q  0.6645  6.61$  14.43$  13.93$
  Q  -1.3290  6.1$  13.84$  14.25$
  Q  0.6645  6.33$  5.5$  4.81$
  Q  0.6645  4.92$  5.55$  3.99$
  Q  -1.3290  5.65$  5.87$  4.39$
  Q  0.6645  10.79$  4.43$  5.93$
  Q  0.6645  10.16$  3.11$  5.78$
  Q  -1.3290  10.81$  3.62$  5.74$
  Q  0.6645  13.18$  17.43$  4.01$
  Q  0.6645  14.21$  17.25$  5.12$
  Q  -1.3290  13.89$  17.17$  4.34$
  Q  0.6645  3.87$  7.18$  16.72$
  Q  0.6645  3.41$  7.22$  15.24$
  Q  -1.3290  3.98$  7.28$  15.87$
  Q  0.6645  5.57$  7.67$  10.4$
  Q  0.6645  5.6$  8.99$  9.64$
  Q  -1.3290  5.59$  8.16$  9.69$
  Q  0.6645  4.26$  9.9$  4.67$
  Q  0.6645  3.31$  11.22$  4.73$
  Q  -1.3290  3.8$  10.59$  4.37$
  Q  0.6645  3.56$  14.26$  7.73$
  Q  0.6645  2.35$  14.95$  6.97$
  Q  -1.3290  3$  14.38$  7.09$
  Q  0.6645  4.77$  7.51$  5.49$
  Q  0.6645  3.44$  8.13$  5.18$
  Q  -1.3290  4.21$  8.15$  5.51$
  Q  0.6645  17.42$  10.01$  21.46$
  Q  0.6645  17.2$  10.34$  19.95$
  Q  -1.3290  17.65$  10.06$  20.64$
*
