! NoMOPrint PrintBasis #MINIPRINT SMALLPRINT LARGEPRINT
! ALLPOP XYZFILE
#! BP86 3-21G   TightSCF
! ENGRAD
! B3LYP NormalPNO PModel #DecontractAux
#! VerySlowConv 
 %maxcore 5000
 %scf  maxiter   500  end 

%pal
    nprocs 32
end

%basis
    NewGTO O    # New basis for oxygen
        "aug-cc-pVTZ"
    end
    NewGTO C    # New basis for carbon
        "aug-cc-pVTZ"
    end
    NewGTO H    # New basis for hydrogen
        "cc-pVTZ"
    end
end

* xyz 0   1
  C  11.79  11.7  12.71  #1
  H  12.44  11.79  11.85  #2
  H  12.39  11.71  13.58  #3
  C  10.74  10.54  12.53  #4
  H  11.31  9.67  12.85  #5
  H  10.04  10.7  13.37  #6
  C  10.13  10.26  11.11  #7
  H  9.75  11.18  10.78  #8
  H  9.25  9.63  11.2  #9
  C  11.07  9.76  10.16  #10
  H  11.22  8.75  10.52  #11
  H  12.01  10.31  10.16  #12
  O  10.51  9.61  8.81  #13
  H  11.24  9.58  8.11  #14
  O  10.98  12.94  12.74  #15
  H  10.26  12.93  13.34  #16
  O  12.54  9.27  6.73  #17
  H  11.85  9.22  6.11  #18
  H  12.83  8.45  7.2  #19
  O  13.91  11.87  7.27  #20
  H  13.38  11.19  6.88  #21
  H  13.39  12.67  7.45  #22
  O  13.45  9.29  13.99  #23
  H  12.82  8.53  14.08  #24
  H  13.34  9.83  14.8  #25
  O  10.26  12.3  16.69  #26
  H  10.01  11.39  16.79  #27
  H  9.67  12.66  16.01  #28
  O  14.77  12.7  13.96  #29
  H  14.97  12.25  13.14  #30
  H  15.6  13  14.38  #31
  O  10.4  9.25  4.88  #32
  H  10.29  8.3  5.14  #33
  H  9.61  9.69  5.12  #34
  O  12.39  6.13  10.93  #35
  H  13.2  5.82  11.32  #36
  H  11.79  5.4  10.77  #37
  O  12.5  14.17  17.26  #38
  H  13.34  13.8  17.73  #39
  H  11.8  13.5  17.22  #40
  O  13.63  11.12  16.03  #41
  H  13.1  11.52  16.66  #42
  H  13.99  11.86  15.46  #43
  O  11.38  7.26  13.57  #44
  H  11.55  6.39  13.89  #45
  H  11.56  7.18  12.63  #46
  O  16.33  11.39  11.89  #47
  H  16.91  12.18  11.93  #48
  H  15.82  11.56  11.08  #49
  O  13.41  15.5  13.85  #50
  H  12.72  15.49  13.18  #51
  H  13.5  14.62  14.12  #52
  O  7.74  12.47  10.42  #53
  H  7.46  12.91  11.27  #54
  H  7.68  11.49  10.67  #55
  O  6.95  9.97  9.39  #56
  H  7.38  9.32  8.83  #57
  H  6.37  10.49  8.78  #58
  O  14.64  8.31  16.75  #59
  H  14.76  7.97  15.83  #60
  H  14.49  7.59  17.37  #61
  O  8.82  13.6  14.84  #62
  H  7.85  13.64  14.82  #63
  H  9.12  14.43  14.42  #64
  O  8.74  14.58  17.96  #65
  H  7.85  14.18  18.03  #66
  H  9.37  13.93  17.54  #67
  O  8.88  7.49  8.51  #68
  H  9.47  8.34  8.61  #69
  H  8.36  7.61  7.73  #70
  O  12.44  14.52  7.51  #71
  H  12.86  15.39  7.71  #72
  H  11.56  14.52  7.9  #73
  O  10.27  11.89  7.27  #74
  H  10.1  11.09  7.72  #75
  H  10.57  12.5  7.94  #76
  O  14.97  10.62  9.65  #77
  H  14.53  11.12  8.93  #78
  H  15.59  10.08  9.13  #79
  O  9.02  7.69  14.59  #80
  H  8.99  7.42  15.51  #81
  H  9.92  7.6  14.32  #82
  O  7.81  10.31  14.6  #83
  H  7.29  10.52  15.39  #84
  H  7.89  9.31  14.63  #85
  O  14.13  8.64  11.55  #86
  H  14.08  9.14  12.43  #87
  H  14.62  9.29  11.02  #88
  O  11.55  15.11  11.35  #89
  H  11.62  14.21  11.79  #90
  H  12.38  15.28  10.9  #91
  O  17.34  12.66  15.09  #92
  H  17.86  13.39  15.38  #93
  H  17.81  12.12  14.42  #94
  O  13.27  7.17  8.44  #95
  H  12.92  7.15  9.33  #96
  H  14.21  6.97  8.34  #97
  O  16  11.57  5.53  #98
  H  15.88  12.02  4.69  #99
  H  15.4  11.84  6.21  #100
  Q  0.6645  11.56$  10.77$  19.25$
  Q  0.6645  11.12$  12.01$  20.04$
  Q  -1.3290  11.09$  11.19$  19.75$
  Q  0.6645  11.45$  2.49$  17.93$
  Q  0.6645  11.72$  1.43$  19.04$
  Q  -1.3290  11.5$  2.19$  18.72$
  Q  0.6645  19.06$  16$  8.21$
  Q  0.6645  20.36$  16.66$  8.12$
  Q  -1.3290  19.56$  16.54$  7.87$
  Q  0.6645  6.85$  3.31$  8.21$
  Q  0.6645  6.65$  2.31$  6.97$
  Q  -1.3290  6.94$  2.96$  7.42$
  Q  0.6645  18.23$  19.36$  11.99$
  Q  0.6645  18.13$  18.62$  10.59$
  Q  -1.3290  18.49$  18.9$  11.34$
  Q  0.6645  9.3$  9.66$  2.15$
  Q  0.6645  7.83$  10.13$  2.44$
  Q  -1.3290  8.45$  9.74$  2.01$
  Q  0.6645  8.61$  14.95$  2.72$
  Q  0.6645  7.21$  15.53$  3.12$
  Q  -1.3290  8.03$  15.27$  3.24$
  Q  0.6645  14.48$  3.25$  2.63$
  Q  0.6645  13.13$  3.4$  3.5$
  Q  -1.3290  13.72$  3.04$  3$
  Q  0.6645  19.99$  6.63$  12.8$
  Q  0.6645  18.94$  5.82$  12.16$
  Q  -1.3290  19.65$  5.92$  12.59$
  Q  0.6645  9.58$  19.37$  14.75$
  Q  0.6645  8.95$  20$  13.36$
  Q  -1.3290  9.22$  19.98$  14.22$
  Q  0.6645  11.87$  15.78$  16.63$
  Q  0.6645  11.71$  16.84$  15.4$
  Q  -1.3290  11.67$  16.53$  16.24$
  Q  0.6645  15.71$  7.11$  6.14$
  Q  0.6645  16.06$  5.76$  6.94$
  Q  -1.3290  15.78$  6.56$  6.8$
  Q  0.6645  5.22$  0.7$  10.12$
  Q  0.6645  5.49$  1.97$  9.16$
  Q  -1.3290  5.22$  1.18$  9.39$
  Q  0.6645  19.14$  5.81$  14.42$
  Q  0.6645  19.71$  5.73$  15.84$
  Q  -1.3290  19.08$  5.76$  15.25$
  Q  0.6645  7.7$  18.88$  8.08$
  Q  0.6645  6.44$  19.36$  8.72$
  Q  -1.3290  7.22$  19.44$  8.5$
  Q  0.6645  4.76$  18.78$  6.83$
  Q  0.6645  4.95$  17.24$  7.01$
  Q  -1.3290  4.71$  18.02$  7.24$
  Q  0.6645  4.73$  4.27$  13.14$
  Q  0.6645  5.27$  2.99$  12.74$
  Q  -1.3290  5$  3.72$  12.59$
  Q  0.6645  6.15$  12.46$  13.33$
  Q  0.6645  7.01$  11.36$  13.39$
  Q  -1.3290  6.47$  11.82$  12.99$
  Q  0.6645  18.96$  6.6$  8.12$
  Q  0.6645  19.06$  5.7$  9.38$
  Q  -1.3290  19.01$  6.41$  8.93$
  Q  0.6645  2.79$  8.24$  16.33$
  Q  0.6645  1.91$  7.55$  15.25$
  Q  -1.3290  2.05$  7.9$  16$
  Q  0.6645  20.66$  9.4$  7.36$
  Q  0.6645  19.43$  10.36$  7.28$
  Q  -1.3290  19.82$  9.63$  7.4$
  Q  0.6645  13.62$  18.51$  18.47$
  Q  0.6645  12.42$  17.99$  17.69$
  Q  -1.3290  12.8$  18.52$  18.21$
  Q  0.6645  9.96$  4.25$  9.97$
  Q  0.6645  11.02$  4.27$  8.86$
  Q  -1.3290  10.67$  4.02$  9.58$
  Q  0.6645  13.93$  6.77$  19.69$
  Q  0.6645  15.22$  6.27$  19.09$
  Q  -1.3290  14.38$  6.34$  19.13$
  Q  0.6645  11.78$  18.05$  19.82$
  Q  0.6645  10.67$  17.79$  20.77$
  Q  -1.3290  11.47$  17.96$  20.57$
  Q  0.6645  4.36$  8.5$  5.2$
  Q  0.6645  3.53$  9.48$  6.09$
  Q  -1.3290  4.26$  9.11$  5.75$
  Q  0.6645  4.77$  15.1$  5.89$
  Q  0.6645  6.34$  15.22$  6.26$
  Q  -1.3290  5.52$  15.5$  6.11$
  Q  0.6645  14.63$  4.35$  13.02$
  Q  0.6645  15.56$  4.18$  11.86$
  Q  -1.3290  14.98$  4.55$  12.28$
  Q  0.6645  11.87$  2.35$  10.21$
  Q  0.6645  12.11$  0.9$  10.62$
  Q  -1.3290  12.34$  1.67$  10.41$
  Q  0.6645  11.4$  21.38$  12.18$
  Q  0.6645  11.68$  20.23$  11.08$
  Q  -1.3290  11.28$  20.89$  11.45$
  Q  0.6645  11.24$  4.57$  0.19$
  Q  0.6645  9.68$  4.77$  0.37$
  Q  -1.3290  10.51$  4.74$  0.61$
  Q  0.6645  4.5$  14.98$  19.27$
  Q  0.6645  4.21$  13.5$  19.78$
  Q  -1.3290  4.39$  14.11$  19.22$
  Q  0.6645  10.1$  17.72$  10.51$
  Q  0.6645  9.89$  16.48$  11.4$
  Q  -1.3290  9.76$  17.25$  11.12$
  Q  0.6645  8.59$  14.3$  6.35$
  Q  0.6645  8.88$  15.31$  5.19$
  Q  -1.3290  8.97$  14.96$  5.97$
  Q  0.6645  17.25$  17.88$  16.09$
  Q  0.6645  18.63$  18.09$  16.92$
  Q  -1.3290  18.01$  17.67$  16.46$
  Q  0.6645  6.62$  13.11$  7.37$
  Q  0.6645  6.13$  12.96$  6.01$
  Q  -1.3290  6.73$  13.09$  6.55$
  Q  0.6645  8.44$  4.75$  3.38$
  Q  0.6645  8.74$  5.9$  4.25$
  Q  -1.3290  8.26$  5.48$  3.74$
  Q  0.6645  4.36$  11.57$  16.43$
  Q  0.6645  3.35$  11.28$  15.18$
  Q  -1.3290  3.73$  11.71$  15.85$
  Q  0.6645  7.5$  16.83$  8.32$
  Q  0.6645  8.48$  16.35$  7.17$
  Q  -1.3290  8.1$  16.91$  7.71$
  Q  0.6645  10.72$  14.88$  1.81$
  Q  0.6645  10.04$  13.44$  1.62$
  Q  -1.3290  10.09$  14.3$  1.58$
  Q  0.6645  12.92$  8.34$  21.03$
  Q  0.6645  14.34$  8.2$  21.65$
  Q  -1.3290  13.76$  8.2$  21.02$
  Q  0.6645  2.76$  14.21$  16.55$
  Q  0.6645  2.16$  15.62$  16.55$
  Q  -1.3290  2.25$  14.81$  16.27$
  Q  0.6645  3.47$  16.38$  9.19$
  Q  0.6645  2.52$  15.18$  9.67$
  Q  -1.3290  2.79$  15.8$  9.14$
  Q  0.6645  8.98$  6.17$  17.05$
  Q  0.6645  8.74$  7.4$  17.77$
  Q  -1.3290  8.53$  6.81$  17.15$
  Q  0.6645  13.03$  9.48$  2.65$
  Q  0.6645  11.74$  9.12$  3.47$
  Q  -1.3290  12.49$  8.96$  3.07$
  Q  0.6645  8.84$  10.77$  19.77$
  Q  0.6645  7.72$  10.55$  20.74$
  Q  -1.3290  8.16$  10.38$  20.07$
  Q  0.6645  16.36$  18.05$  18.54$
  Q  0.6645  15.72$  16.99$  17.51$
  Q  -1.3290  15.77$  17.5$  18.24$
  Q  0.6645  8.54$  16.59$  14.53$
  Q  0.6645  8.39$  17.02$  13.1$
  Q  -1.3290  8.58$  16.47$  13.68$
  Q  0.6645  17.06$  18.14$  8.37$
  Q  0.6645  15.96$  18.58$  9.3$
  Q  -1.3290  16.7$  18.26$  9.1$
  Q  0.6645  14.55$  15.79$  15.51$
  Q  0.6645  15.3$  14.84$  16.44$
  Q  -1.3290  15.21$  15.52$  15.94$
  Q  0.6645  17.58$  10.98$  20.93$
  Q  0.6645  16.15$  11.64$  20.73$
  Q  -1.3290  16.99$  11.6$  20.88$
  Q  0.6645  17.01$  15.56$  14.61$
  Q  0.6645  17.57$  14.61$  13.48$
  Q  -1.3290  17.43$  15.39$  13.86$
  Q  0.6645  8.14$  19.05$  11.28$
  Q  0.6645  7.12$  19.19$  12.41$
  Q  -1.3290  7.67$  19.45$  11.84$
  Q  0.6645  8.17$  15.74$  16.62$
  Q  0.6645  8.29$  17.28$  16.69$
  Q  -1.3290  7.97$  16.52$  16.4$
  Q  0.6645  8.13$  1.76$  15.96$
  Q  0.6645  8.49$  2.27$  17.42$
  Q  -1.3290  8.51$  2.27$  16.55$
  Q  0.6645  14.59$  16.19$  9.8$
  Q  0.6645  14.68$  16.72$  11.32$
  Q  -1.3290  14.31$  16.5$  10.57$
  Q  0.6645  14.39$  1.67$  7.46$
  Q  0.6645  13.99$  2.35$  8.84$
  Q  -1.3290  14.49$  2.16$  8.14$
  Q  0.6645  5.53$  8.45$  6.97$
  Q  0.6645  6.13$  7.95$  8.31$
  Q  -1.3290  6.09$  8.09$  7.49$
  Q  0.6645  8.03$  19.6$  18.9$
  Q  0.6645  6.64$  19.63$  19.42$
  Q  -1.3290  7.34$  19.25$  19.19$
  Q  0.6645  14.98$  16.4$  6.95$
  Q  0.6645  14.52$  17.34$  8.07$
  Q  -1.3290  14.56$  16.59$  7.64$
  Q  0.6645  13.11$  2.52$  12.16$
  Q  0.6645  12.42$  2.04$  13.38$
  Q  -1.3290  12.99$  2.47$  13$
  Q  0.6645  10.58$  18.05$  16.54$
  Q  0.6645  10.09$  19.54$  16.96$
  Q  -1.3290  10.07$  18.75$  16.6$
  Q  0.6645  13.71$  12.82$  1.56$
  Q  0.6645  13.73$  11.64$  0.62$
  Q  -1.3290  13.5$  12.07$  1.31$
  Q  0.6645  6.23$  11.18$  17.44$
  Q  0.6645  5.57$  9.93$  16.93$
  Q  -1.3290  6$  10.64$  16.87$
  Q  0.6645  12.73$  4.24$  7.19$
  Q  0.6645  12.48$  5.65$  7.55$
  Q  -1.3290  12.25$  4.9$  7.29$
  Q  0.6645  3.95$  9.07$  17.89$
  Q  0.6645  4.75$  7.8$  17.41$
  Q  -1.3290  4.33$  8.54$  17.33$
  Q  0.6645  13.75$  15.1$  19.57$
  Q  0.6645  12.39$  14.28$  20.07$
  Q  -1.3290  13.24$  14.5$  19.97$
  Q  0.6645  7.37$  8.04$  1.93$
  Q  0.6645  7.01$  6.64$  2.51$
  Q  -1.3290  6.85$  7.38$  2.11$
  Q  0.6645  12.03$  18.66$  13.72$
  Q  0.6645  10.9$  17.89$  12.86$
  Q  -1.3290  11.36$  18.1$  13.56$
  Q  0.6645  9.78$  17.61$  8.12$
  Q  0.6645  10.55$  18.91$  7.87$
  Q  -1.3290  10.34$  18.22$  8.32$
  Q  0.6645  18.18$  14.08$  18.47$
  Q  0.6645  17.9$  13.15$  19.7$
  Q  -1.3290  18.33$  13.72$  19.25$
  Q  0.6645  1.71$  13.67$  11.7$
  Q  0.6645  2.66$  12.84$  10.67$
  Q  -1.3290  2.22$  13.53$  11.01$
  Q  0.6645  2.96$  10.91$  19.02$
  Q  0.6645  3.91$  10.42$  20.15$
  Q  -1.3290  3.55$  10.37$  19.4$
  Q  0.6645  8.79$  8.66$  19.69$
  Q  0.6645  10.12$  7.87$  19.82$
  Q  -1.3290  9.33$  8.02$  19.55$
  Q  0.6645  10.36$  2$  4.41$
  Q  0.6645  10.38$  2.26$  5.96$
  Q  -1.3290  10.62$  2.36$  5.14$
  Q  0.6645  13.73$  9.72$  17.81$
  Q  0.6645  13.62$  9.33$  19.29$
  Q  -1.3290  13.49$  9.83$  18.63$
  Q  0.6645  12.16$  14.32$  5.54$
  Q  0.6645  11.63$  13.41$  4.5$
  Q  -1.3290  12.09$  14.06$  4.79$
  Q  0.6645  20.81$  9.02$  12.43$
  Q  0.6645  20.45$  8.99$  13.99$
  Q  -1.3290  20.76$  8.7$  13.25$
  Q  0.6645  2.47$  19.61$  11.99$
  Q  0.6645  3.32$  18.23$  11.91$
  Q  -1.3290  2.86$  18.9$  12.29$
  Q  0.6645  5.93$  4.8$  6.87$
  Q  0.6645  5.78$  6.26$  6.77$
  Q  -1.3290  5.54$  5.49$  6.65$
  Q  0.6645  19.23$  13.97$  11.23$
  Q  0.6645  17.72$  14.3$  10.81$
  Q  -1.3290  18.37$  13.83$  11.19$
  Q  0.6645  5.86$  14.96$  9.31$
  Q  0.6645  6.48$  15.59$  10.5$
  Q  -1.3290  6.08$  15.59$  9.76$
  Q  0.6645  8.76$  2.39$  2.9$
  Q  0.6645  9.49$  3.1$  1.71$
  Q  -1.3290  9.07$  3.03$  2.47$
  Q  0.6645  20.52$  11.05$  15.11$
  Q  0.6645  21.28$  10.31$  16.29$
  Q  -1.3290  21.2$  10.79$  15.57$
  Q  0.6645  13.71$  19.46$  8.82$
  Q  0.6645  14.65$  20.21$  7.83$
  Q  -1.3290  14.4$  19.55$  8.3$
  Q  0.6645  5.4$  3.46$  4.48$
  Q  0.6645  6.34$  4.62$  4.19$
  Q  -1.3290  5.72$  4.09$  4.02$
  Q  0.6645  15.59$  12.78$  17.87$
  Q  0.6645  15.72$  13.98$  18.79$
  Q  -1.3290  15.39$  13.55$  18.16$
  Q  0.6645  5.24$  14.26$  14.21$
  Q  0.6645  5.38$  13.3$  15.4$
  Q  -1.3290  5.64$  13.78$  14.77$
  Q  0.6645  8.85$  2.71$  7.66$
  Q  0.6645  9.22$  1.29$  8.04$
  Q  -1.3290  9.32$  2.02$  7.62$
  Q  0.6645  4.04$  16.11$  13.81$
  Q  0.6645  3.35$  15.13$  12.85$
  Q  -1.3290  3.95$  15.67$  13.12$
  Q  0.6645  16.82$  11.73$  16.47$
  Q  0.6645  15.66$  10.76$  16.78$
  Q  -1.3290  16.33$  11.29$  16.96$
  Q  0.6645  6.55$  6.22$  17.54$
  Q  0.6645  5.52$  6.12$  18.58$
  Q  -1.3290  5.77$  6.22$  17.8$
  Q  0.6645  17.86$  10.63$  9.7$
  Q  0.6645  18.36$  12.08$  10.11$
  Q  -1.3290  18.21$  11.39$  9.59$
  Q  0.6645  6.96$  14.33$  20.06$
  Q  0.6645  7.77$  15.6$  20.53$
  Q  -1.3290  7.25$  14.92$  20.61$
  Q  0.6645  21.07$  12.67$  10.22$
  Q  0.6645  21.73$  13.93$  9.65$
  Q  -1.3290  21.12$  13.48$  10.01$
  Q  0.6645  10.8$  7.4$  2.6$
  Q  0.6645  10.03$  6.61$  1.63$
  Q  -1.3290  10.16$  7.27$  2.11$
  Q  0.6645  1.73$  14.49$  14.29$
  Q  0.6645  1.25$  15.74$  13.61$
  Q  -1.3290  1.51$  14.94$  13.62$
  Q  0.6645  16.02$  7.42$  1.63$
  Q  0.6645  16.02$  8.86$  1.34$
  Q  -1.3290  15.87$  8.08$  1.13$
  Q  0.6645  2.02$  11.07$  6.44$
  Q  0.6645  1.81$  9.73$  7.22$
  Q  -1.3290  2.22$  10.43$  6.95$
  Q  0.6645  7.29$  9.58$  6.23$
  Q  0.6645  7.32$  11$  5.82$
  Q  -1.3290  7.64$  10.25$  5.9$
  Q  0.6645  4.75$  19.11$  16.77$
  Q  0.6645  4.83$  19.39$  15.24$
  Q  -1.3290  4.71$  19.59$  16.08$
  Q  0.6645  8.07$  4.7$  13.01$
  Q  0.6645  8.38$  3.23$  12.33$
  Q  -1.3290  8.55$  4.02$  12.73$
  Q  0.6645  7.38$  12.3$  2.56$
  Q  0.6645  8.11$  12.14$  3.96$
  Q  -1.3290  7.6$  11.93$  3.31$
  Q  0.6645  5.71$  15.95$  15.45$
  Q  0.6645  4.97$  16.71$  16.48$
  Q  -1.3290  5.15$  16.49$  15.69$
  Q  0.6645  1.57$  5.9$  13.39$
  Q  0.6645  0.84$  7.27$  13.12$
  Q  -1.3290  1.45$  6.75$  13.41$
  Q  0.6645  4.86$  12.75$  9.1$
  Q  0.6645  6.44$  13.04$  9.54$
  Q  -1.3290  5.68$  13.03$  9.04$
  Q  0.6645  3.28$  4.96$  9.32$
  Q  0.6645  3.85$  4.71$  7.94$
  Q  -1.3290  3.29$  4.57$  8.57$
  Q  0.6645  10.83$  8.34$  22.14$
  Q  0.6645  10.97$  9.59$  21.17$
  Q  -1.3290  11.11$  8.79$  21.46$
  Q  0.6645  13.98$  19.86$  13$
  Q  0.6645  13.87$  19.44$  14.58$
  Q  -1.3290  13.6$  19.71$  13.77$
  Q  0.6645  3.56$  10.45$  12.32$
  Q  0.6645  5.04$  10.6$  12.04$
  Q  -1.3290  4.28$  10.23$  11.97$
  Q  0.6645  5.14$  17.56$  9.98$
  Q  0.6645  4.22$  18.61$  9.25$
  Q  -1.3290  4.62$  18.26$  9.94$
  Q  0.6645  9.82$  21.41$  10.35$
  Q  0.6645  8.34$  21.12$  9.72$
  Q  -1.3290  9.08$  21.57$  9.88$
  Q  0.6645  10.03$  12.26$  5.67$
  Q  0.6645  9.74$  13.42$  4.74$
  Q  -1.3290  9.93$  12.61$  4.9$
  Q  0.6645  1.69$  7.63$  9.76$
  Q  0.6645  2.52$  8.75$  10.1$
  Q  -1.3290  1.9$  8.41$  9.71$
  Q  0.6645  16.71$  6.08$  11.85$
  Q  0.6645  17.4$  6$  10.46$
  Q  -1.3290  17.35$  6.06$  11.3$
  Q  0.6645  21.14$  14.62$  13.85$
  Q  0.6645  19.72$  15.19$  13.95$
  Q  -1.3290  20.31$  14.63$  13.71$
  Q  0.6645  12.22$  16.8$  2.34$
  Q  0.6645  11.89$  16.02$  3.52$
  Q  -1.3290  11.71$  16.46$  2.86$
  Q  0.6645  4.39$  17.63$  18.67$
  Q  0.6645  5.86$  18.08$  18.36$
  Q  -1.3290  5.08$  17.78$  18.17$
  Q  0.6645  10$  0.15$  13.93$
  Q  0.6645  9.87$  1.46$  13.17$
  Q  -1.3290  10.28$  0.85$  13.55$
  Q  0.6645  16.2$  3.48$  7.47$
  Q  0.6645  17.65$  3.59$  7.22$
  Q  -1.3290  16.87$  3.9$  7.23$
  Q  0.6645  18.03$  8.5$  14.75$
  Q  0.6645  18.89$  7.56$  15.69$
  Q  -1.3290  18.61$  8.3$  15.36$
  Q  0.6645  12.45$  1.59$  15.99$
  Q  0.6645  11.33$  2.69$  15.69$
  Q  -1.3290  12$  2.35$  16.08$
  Q  0.6645  19.23$  17.44$  13.91$
  Q  0.6645  19.9$  17.27$  12.62$
  Q  -1.3290  19.89$  17.37$  13.43$
  Q  0.6645  15.75$  3.48$  14.73$
  Q  0.6645  14.9$  4.15$  15.7$
  Q  -1.3290  15.42$  4.16$  15.08$
  Q  0.6645  16.54$  9.89$  12.9$
  Q  0.6645  16.22$  8.5$  13.59$
  Q  -1.3290  16.73$  9.15$  13.28$
  Q  0.6645  15.71$  6.15$  14.36$
  Q  0.6645  14.89$  7.06$  13.34$
  Q  -1.3290  15.39$  6.88$  14$
  Q  0.6645  13.4$  -0.06$  14.52$
  Q  0.6645  14.13$  1.36$  14.72$
  Q  -1.3290  13.77$  0.61$  14.96$
  Q  0.6645  8.3$  11.89$  0.89$
  Q  0.6645  8.11$  13.33$  0.12$
  Q  -1.3290  7.88$  12.56$  0.54$
  Q  0.6645  4.71$  7.16$  10.71$
  Q  0.6645  5.67$  8.27$  10.46$
  Q  -1.3290  5.21$  7.62$  10.25$
  Q  0.6645  5.34$  17.88$  14.24$
  Q  0.6645  4.91$  19.01$  13.19$
  Q  -1.3290  5.41$  18.57$  13.7$
  Q  0.6645  5.87$  13.02$  18.48$
  Q  0.6645  7.1$  12.35$  19.17$
  Q  -1.3290  6.69$  12.79$  18.56$
  Q  0.6645  10.4$  4.14$  13.74$
  Q  0.6645  11.99$  3.86$  13.97$
  Q  -1.3290  11.17$  4.21$  14.08$
  Q  0.6645  3.01$  14.54$  7.06$
  Q  0.6645  2.59$  15.28$  5.83$
  Q  -1.3290  2.86$  14.6$  6.26$
  Q  0.6645  9.81$  6.9$  6.91$
  Q  0.6645  10.64$  5.92$  5.98$
  Q  -1.3290  10.07$  6.55$  6.16$
  Q  0.6645  16.6$  5.82$  3.39$
  Q  0.6645  15.02$  5.8$  3.2$
  Q  -1.3290  15.86$  5.75$  2.94$
  Q  0.6645  18.55$  15.64$  16.73$
  Q  0.6645  19.5$  14.47$  16.26$
  Q  -1.3290  18.83$  14.82$  16.63$
  Q  0.6645  13.91$  14.66$  -0.07$
  Q  0.6645  15.34$  14.79$  0.25$
  Q  -1.3290  14.55$  14.87$  0.42$
  Q  0.6645  2.12$  11.9$  17.26$
  Q  0.6645  1$  11.89$  18.08$
  Q  -1.3290  1.79$  12.05$  17.95$
  Q  0.6645  15.27$  20.79$  10.92$
  Q  0.6645  15.45$  19.29$  11.55$
  Q  -1.3290  15.15$  20.08$  11.44$
  Q  0.6645  1.51$  10.7$  14.42$
  Q  0.6645  2.36$  9.48$  14.16$
  Q  -1.3290  2.2$  10.31$  14.15$
  Q  0.6645  7.74$  21.06$  15.29$
  Q  0.6645  6.39$  21.16$  16.12$
  Q  -1.3290  7.01$  21.41$  15.58$
  Q  0.6645  17.54$  8.48$  3.44$
  Q  0.6645  18.71$  7.77$  3.9$
  Q  -1.3290  18.35$  8.35$  3.46$
  Q  0.6645  8.03$  17.83$  4.05$
  Q  0.6645  8.15$  17.85$  5.6$
  Q  -1.3290  7.78$  18.03$  4.86$
  Q  0.6645  6.5$  6.94$  12.79$
  Q  0.6645  8.07$  6.96$  13.21$
  Q  -1.3290  7.36$  6.72$  12.81$
  Q  0.6645  16.2$  19.69$  14.87$
  Q  0.6645  15.43$  19.9$  16.16$
  Q  -1.3290  15.59$  19.48$  15.42$
  Q  0.6645  4.76$  6.5$  4.65$
  Q  0.6645  5.15$  7.37$  3.54$
  Q  -1.3290  4.59$  7.03$  4.05$
  Q  0.6645  4.04$  10.76$  10.22$
  Q  0.6645  3.24$  11.02$  8.95$
  Q  -1.3290  3.67$  11.24$  9.64$
  Q  0.6645  11.47$  11.55$  1.89$
  Q  0.6645  10.19$  11.57$  2.94$
  Q  -1.3290  10.63$  11.64$  2.17$
  Q  0.6645  14.28$  11.15$  19.84$
  Q  0.6645  14.3$  12.63$  20.3$
  Q  -1.3290  14.47$  11.8$  20.34$
  Q  0.6645  19.29$  11.13$  12.83$
  Q  0.6645  19.72$  12.52$  13.38$
  Q  -1.3290  19.52$  11.71$  13.4$
  Q  0.6645  14.99$  11.06$  2.64$
  Q  0.6645  14.89$  9.79$  3.56$
  Q  -1.3290  15.05$  10.24$  2.83$
  Q  0.6645  16.72$  2.24$  10.78$
  Q  0.6645  17.75$  3.3$  10.62$
  Q  -1.3290  17.12$  2.91$  11.02$
  Q  0.6645  4.48$  5.85$  14.76$
  Q  0.6645  4.7$  4.59$  15.35$
  Q  -1.3290  4.28$  5.09$  14.89$
  Q  0.6645  10.51$  14.4$  9.89$
  Q  0.6645  9.15$  13.9$  9.37$
  Q  -1.3290  9.96$  14.15$  9.32$
  Q  0.6645  17.23$  15.13$  20.22$
  Q  0.6645  16.07$  16.07$  19.69$
  Q  -1.3290  16.4$  15.39$  20.11$
  Q  0.6645  16.77$  15.17$  8.59$
  Q  0.6645  16.76$  16.25$  9.59$
  Q  -1.3290  16.85$  15.45$  9.34$
  Q  0.6645  9.64$  3.87$  16.92$
  Q  0.6645  10.74$  4.74$  16.32$
  Q  -1.3290  10.06$  4.6$  16.83$
  Q  0.6645  3.61$  4.93$  11.44$
  Q  0.6645  2.1$  5.18$  11.49$
  Q  -1.3290  2.89$  5.3$  11.23$
  Q  0.6645  13.31$  7.36$  3.51$
  Q  0.6645  12.76$  5.98$  3.82$
  Q  -1.3290  13.38$  6.57$  3.76$
  Q  0.6645  8.6$  6.09$  9.53$
  Q  0.6645  8.55$  5.89$  10.96$
  Q  -1.3290  8.51$  5.63$  10.22$
  Q  0.6645  17.06$  7.3$  17.31$
  Q  0.6645  17.14$  5.9$  16.89$
  Q  -1.3290  17.11$  6.49$  17.44$
  Q  0.6645  7.16$  15.25$  12.77$
  Q  0.6645  5.75$  15.19$  12.2$
  Q  -1.3290  6.59$  15.08$  12.21$
  Q  0.6645  4.6$  11.13$  4.88$
  Q  0.6645  5.8$  11.8$  4.18$
  Q  -1.3290  5.09$  11.8$  4.67$
  Q  0.6645  14.38$  8.48$  5.05$
  Q  0.6645  15.5$  9.5$  5.45$
  Q  -1.3290  15.18$  8.83$  5.04$
  Q  0.6645  17.47$  9.06$  8.29$
  Q  0.6645  16.37$  8.12$  7.69$
  Q  -1.3290  16.68$  8.82$  8.09$
  Q  0.6645  10.71$  4.62$  3.07$
  Q  0.6645  11.19$  4.11$  4.4$
  Q  -1.3290  11.16$  4.66$  3.78$
  Q  0.6645  14.89$  17.58$  13.42$
  Q  0.6645  16.24$  16.88$  13.12$
  Q  -1.3290  15.56$  17.37$  12.94$
  Q  0.6645  4.27$  14.54$  2.8$
  Q  0.6645  4.56$  13.21$  3.35$
  Q  -1.3290  4.24$  13.73$  2.8$
  Q  0.6645  5.94$  3.46$  10.68$
  Q  0.6645  6.74$  4.49$  10.01$
  Q  -1.3290  6.3$  3.8$  10.03$
  Q  0.6645  3.54$  7.04$  12.74$
  Q  0.6645  4.47$  8.32$  12.65$
  Q  -1.3290  4.22$  7.55$  12.89$
  Q  0.6645  7.24$  5.47$  15.43$
  Q  0.6645  7.42$  3.93$  15.93$
  Q  -1.3290  7.01$  4.64$  15.6$
  Q  0.6645  17.98$  11.85$  6.08$
  Q  0.6645  18.4$  12.31$  7.58$
  Q  -1.3290  18.5$  12.06$  6.73$
  Q  0.6645  15.05$  16.37$  4.66$
  Q  0.6645  14.04$  15.28$  4.79$
  Q  -1.3290  14.79$  15.63$  4.9$
  Q  0.6645  18.86$  8.15$  10.28$
  Q  0.6645  18.37$  8.58$  11.7$
  Q  -1.3290  18.6$  8.68$  10.9$
  Q  0.6645  11.91$  18.39$  9.37$
  Q  0.6645  13.08$  18.18$  10.39$
  Q  -1.3290  12.44$  18.6$  10$
  Q  0.6645  15.04$  13.95$  3.55$
  Q  0.6645  16.23$  13.48$  2.63$
  Q  -1.3290  15.68$  13.45$  3.27$
  Q  0.6645  8.18$  0.72$  11.27$
  Q  0.6645  7.06$  1.24$  12.23$
  Q  -1.3290  7.82$  1.22$  11.88$
  Q  0.6645  16.41$  15.03$  6.05$
  Q  0.6645  17.61$  14.2$  6.34$
  Q  -1.3290  17.06$  14.77$  6.51$
  Q  0.6645  17.78$  10.07$  17.69$
  Q  0.6645  18.78$  9.43$  16.87$
  Q  -1.3290  18.55$  9.83$  17.52$
  Q  0.6645  8.49$  17.79$  20.13$
  Q  0.6645  8.75$  17.78$  21.73$
  Q  -1.3290  8.79$  17.51$  20.89$
  Q  0.6645  19.85$  7.77$  6.53$
  Q  0.6645  20.57$  6.48$  6.8$
  Q  -1.3290  19.99$  6.96$  6.43$
  Q  0.6645  18.7$  6.17$  5.14$
  Q  0.6645  19.04$  5.68$  3.75$
  Q  -1.3290  18.5$  5.84$  4.41$
  Q  0.6645  20.17$  10.07$  10.45$
  Q  0.6645  21.65$  10.05$  10.14$
  Q  -1.3290  20.98$  10.3$  10.6$
  Q  0.6645  9.96$  14.48$  20.88$
  Q  0.6645  9.98$  14.29$  19.36$
  Q  -1.3290  10.23$  14.16$  20.15$
  Q  0.6645  8.4$  6.46$  20.73$
  Q  0.6645  7.5$  6.31$  21.99$
  Q  -1.3290  7.99$  6.04$  21.34$
  Q  0.6645  14.27$  4.8$  17.94$
  Q  0.6645  13.8$  3.27$  17.61$
  Q  -1.3290  14.32$  3.97$  17.65$
*
