! NoMOPrint PrintBasis #MINIPRINT SMALLPRINT LARGEPRINT
! ALLPOP XYZFILE
#! BP86 3-21G   TightSCF
! ENGRAD
! B3LYP NormalPNO PModel #DecontractAux
#! VerySlowConv 
 %maxcore 5000
 %scf  maxiter   500  end 

%pal
    nprocs 32
end

%basis
    NewGTO O    # New basis for oxygen
        "aug-cc-pVTZ"
    end
    NewGTO C    # New basis for carbon
        "aug-cc-pVTZ"
    end
    NewGTO H    # New basis for hydrogen
        "cc-pVTZ"
    end
end

* xyz 0   1
  C  12.53  9.55  10.9  #1
  H  13.13  10.24  11.48  #2
  H  12.86  9.46  9.88  #3
  C  11.14  9.97  11.04  #4
  H  10.48  9.25  10.53  #5
  H  10.89  9.92  12.13  #6
  C  10.89  11.43  10.57  #7
  H  10.64  11.51  9.51  #8
  H  11.85  11.9  10.67  #9
  C  9.83  12.18  11.28  #10
  H  10.14  12.36  12.36  #11
  H  8.88  11.68  11.32  #12
  O  9.5  13.42  10.65  #13
  H  8.74  13.8  11.17  #14
  O  12.81  8.22  11.35  #15
  H  12.53  8.08  12.22  #16
  O  6.94  9.36  11.99  #17
  H  6.32  8.64  12.07  #18
  H  7.3  9.52  11.09  #19
  O  14.98  8.01  9.52  #20
  H  15.7  7.41  9.89  #21
  H  14.23  7.82  10.1  #22
  O  11.28  15.15  12.34  #23
  H  10.94  14.68  11.58  #24
  H  10.53  15.54  12.82  #25
  O  15.15  12.85  12.05  #26
  H  15.14  11.98  12.46  #27
  H  14.53  13.4  12.63  #28
  O  7.58  9.71  9.04  #29
  H  6.87  9.39  8.47  #30
  H  8.35  10.06  8.48  #31
  O  12.6  7.43  14.16  #32
  H  12  6.68  14  #33
  H  12.13  8.26  14.31  #34
  O  5.51  6.55  12.07  #35
  H  4.95  6.26  11.32  #36
  H  5.07  6.47  12.87  #37
  O  5.14  8.61  8.35  #38
  H  5.11  7.7  8.75  #39
  H  4.58  8.7  7.56  #40
  O  11.67  17.13  10.11  #41
  H  10.82  17.59  9.99  #42
  H  11.58  16.75  10.98  #43
  O  12.32  10.29  14.46  #44
  H  12.47  10.97  15.11  #45
  H  13.13  10.13  13.97  #46
  O  14.7  5.73  13.66  #47
  H  14.38  5.33  12.83  #48
  H  14.19  6.5  13.82  #49
  O  9.62  7.42  7.77  #50
  H  8.76  7.68  8.15  #51
  H  9.52  7.14  6.87  #52
  O  6.72  7.76  14.61  #53
  H  5.82  7.82  14.87  #54
  H  6.85  8.61  14.26  #55
  O  10.99  6.22  10  #56
  H  11.43  6.84  10.56  #57
  H  10.85  6.63  9.14  #58
  O  9.32  12.15  15.41  #59
  H  8.97  13.07  15.57  #60
  H  10.26  12.18  15.18  #61
  O  5.37  15.25  10.73  #62
  H  5.6  15.23  9.77  #63
  H  6.2  15.12  11.17  #64
  O  6.99  11.15  14.36  #65
  H  7.15  10.82  13.5  #66
  H  7.7  11.67  14.79  #67
  O  9.51  10.88  7.68  #68
  H  10.35  10.58  7.25  #69
  H  9.65  11.86  7.63  #70
  O  6.17  12.32  10.01  #71
  H  5.58  11.83  10.55  #72
  H  6.82  11.66  9.66  #73
  O  9.23  16.96  13.44  #74
  H  8.84  17.73  12.99  #75
  H  9.95  17.37  13.93  #76
  O  14.05  13.66  9.28  #77
  H  14.19  12.92  8.66  #78
  H  14.47  13.43  10.09  #79
  O  13.25  13.91  13.77  #80
  H  13.9  14.55  14.16  #81
  H  12.57  14.48  13.34  #82
  O  14.99  8.61  6.83  #83
  H  15.9  8.55  6.53  #84
  H  14.82  8.32  7.75  #85
  O  14.98  10.39  13.58  #86
  H  15.84  10.03  13.22  #87
  H  15.19  10.51  14.57  #88
  O  9.6  13.75  7.99  #89
  H  9.59  13.92  8.94  #90
  H  10.32  14.29  7.58  #91
  O  17.32  13.73  10.6  #92
  H  18.07  13.16  10.94  #93
  H  16.57  13.44  11.16  #94
  O  7.63  14.7  12.56  #95
  H  7.14  14.2  13.23  #96
  H  8.1  15.36  13.06  #97
  O  16.64  5.72  10.25  #98
  H  15.87  5.25  10.63  #99
  H  17.17  6.04  10.97  #100
  O  17.1  9.71  8.81  #101
  H  17.59  8.89  8.81  #102
  H  16.2  9.32  8.84  #103
  Q  0.6645  11.4$  12.34$  5.58$
  Q  0.6645  11.35$  10.9$  5.08$
  Q  -1.3290  11.46$  11.51$  5.68$
  Q  0.6645  6.75$  16.97$  7.8$
  Q  0.6645  6.86$  15.45$  7.76$
  Q  -1.3290  7.04$  16.23$  8.05$
  Q  0.6645  20.27$  4.71$  16.38$
  Q  0.6645  20.88$  6.09$  16.63$
  Q  -1.3290  20.37$  5.53$  16.25$
  Q  0.6645  11.26$  4.69$  13.28$
  Q  0.6645  9.9$  5.6$  13.23$
  Q  -1.3290  10.77$  5.43$  13.16$
  Q  0.6645  2.55$  15.13$  16.14$
  Q  0.6645  2.72$  16.5$  15.32$
  Q  -1.3290  2.77$  15.65$  15.49$
  Q  0.6645  10.56$  1.26$  14.74$
  Q  0.6645  11.35$  1.05$  15.97$
  Q  -1.3290  11.05$  0.8$  15.23$
  Q  0.6645  2.2$  12.24$  6.63$
  Q  0.6645  3.34$  11.79$  7.44$
  Q  -1.3290  2.62$  11.7$  7.06$
  Q  0.6645  21.3$  7.92$  14.02$
  Q  0.6645  21.22$  9.29$  14.48$
  Q  -1.3290  20.9$  8.63$  14.14$
  Q  0.6645  14.19$  15.38$  9.61$
  Q  0.6645  13.41$  16.63$  9.78$
  Q  -1.3290  14.11$  16.2$  9.75$
  Q  0.6645  13.09$  1.32$  11.51$
  Q  0.6645  13.95$  0.97$  12.82$
  Q  -1.3290  13.7$  1.44$  12.12$
  Q  0.6645  6.09$  11.97$  16.62$
  Q  0.6645  6.69$  12.55$  18.02$
  Q  -1.3290  6.68$  12.09$  17.27$
  Q  0.6645  17.11$  7.9$  13.87$
  Q  0.6645  16.05$  7.02$  13.16$
  Q  -1.3290  16.62$  7.62$  13.2$
  Q  0.6645  15.54$  10.42$  17.05$
  Q  0.6645  15.11$  11.67$  16.61$
  Q  -1.3290  15.25$  10.89$  16.47$
  Q  0.6645  3.28$  11.04$  10.28$
  Q  0.6645  4.22$  9.85$  9.77$
  Q  -1.3290  3.93$  10.47$  10.29$
  Q  0.6645  17.27$  10.37$  10.56$
  Q  0.6645  17.27$  9.41$  11.82$
  Q  -1.3290  17.29$  10.15$  11.42$
  Q  0.6645  20.11$  15.04$  8.67$
  Q  0.6645  19.14$  13.99$  8.26$
  Q  -1.3290  19.79$  14.46$  8.15$
  Q  0.6645  14.87$  17.29$  15.79$
  Q  0.6645  14.25$  18.71$  16.27$
  Q  -1.3290  14.34$  17.84$  16.2$
  Q  0.6645  13.1$  20.6$  13.41$
  Q  0.6645  12.48$  21.71$  14.28$
  Q  -1.3290  13.12$  21.24$  13.96$
  Q  0.6645  18.38$  9.84$  6.48$
  Q  0.6645  19.21$  10.59$  7.63$
  Q  -1.3290  18.98$  10.39$  6.84$
  Q  0.6645  9.63$  10.6$  16.7$
  Q  0.6645  10.84$  10.03$  17.42$
  Q  -1.3290  10.01$  10.1$  17.25$
  Q  0.6645  14.3$  1.35$  6.08$
  Q  0.6645  13.39$  0.78$  5$
  Q  -1.3290  13.64$  1.35$  5.56$
  Q  0.6645  4.17$  18.38$  6.29$
  Q  0.6645  3.55$  19.28$  5.29$
  Q  -1.3290  3.52$  18.64$  5.85$
  Q  0.6645  19.13$  8.01$  14.78$
  Q  0.6645  18.61$  6.72$  15.22$
  Q  -1.3290  18.53$  7.51$  15.05$
  Q  0.6645  13.89$  13.08$  2.42$
  Q  0.6645  12.78$  14$  3.17$
  Q  -1.3290  13.42$  13.79$  2.58$
  Q  0.6645  6.81$  4.61$  17.04$
  Q  0.6645  5.64$  3.77$  17.26$
  Q  -1.3290  6.13$  4.22$  16.79$
  Q  0.6645  11.21$  18.8$  15.42$
  Q  0.6645  12.12$  17.62$  15.39$
  Q  -1.3290  11.48$  18.06$  15.15$
  Q  0.6645  18.13$  5.21$  19.32$
  Q  0.6645  17.27$  5.44$  18.15$
  Q  -1.3290  17.46$  5.51$  18.95$
  Q  0.6645  15.41$  8.38$  17.9$
  Q  0.6645  15.76$  9.17$  19.24$
  Q  -1.3290  15.87$  8.9$  18.42$
  Q  0.6645  15.82$  9.74$  2.57$
  Q  0.6645  16.77$  8.45$  2.51$
  Q  -1.3290  16.3$  9.11$  2.89$
  Q  0.6645  2.13$  7.81$  10.81$
  Q  0.6645  2.19$  8.6$  12.14$
  Q  -1.3290  1.95$  8.01$  11.6$
  Q  0.6645  12.16$  8.43$  19.28$
  Q  0.6645  11.42$  8.03$  20.6$
  Q  -1.3290  11.95$  7.92$  19.95$
  Q  0.6645  14.5$  0.75$  14.85$
  Q  0.6645  14.72$  1.62$  16.14$
  Q  -1.3290  14.82$  1.39$  15.31$
  Q  0.6645  5.99$  19.69$  13.92$
  Q  0.6645  6.04$  18.37$  14.35$
  Q  -1.3290  5.69$  18.97$  13.89$
  Q  0.6645  11.77$  15.96$  7.65$
  Q  0.6645  12.69$  15.04$  6.74$
  Q  -1.3290  11.95$  15.44$  7.02$
  Q  0.6645  7.59$  7.05$  19.53$
  Q  0.6645  8.39$  7.86$  18.51$
  Q  -1.3290  8.06$  7.69$  19.25$
  Q  0.6645  16.16$  4.57$  8.6$
  Q  0.6645  14.77$  4.39$  8$
  Q  -1.3290  15.61$  4.42$  7.98$
  Q  0.6645  4.94$  12.94$  8.86$
  Q  0.6645  3.95$  13.92$  8.05$
  Q  -1.3290  4.59$  13.34$  8.16$
  Q  0.6645  10.47$  6.6$  4.73$
  Q  0.6645  9.02$  7.05$  4.27$
  Q  -1.3290  9.74$  7.09$  4.73$
  Q  0.6645  3.16$  6.05$  9.53$
  Q  0.6645  4.52$  5.34$  9.17$
  Q  -1.3290  4$  5.94$  9.5$
  Q  0.6645  2.57$  14.18$  3.98$
  Q  0.6645  3.37$  13$  4.64$
  Q  -1.3290  2.63$  13.43$  4.36$
  Q  0.6645  8.1$  14.27$  21.11$
  Q  0.6645  9.07$  13.15$  20.57$
  Q  -1.3290  8.86$  13.95$  20.83$
  Q  0.6645  15.07$  16.7$  13.61$
  Q  0.6645  16.23$  15.82$  14.13$
  Q  -1.3290  15.44$  16.2$  14.17$
  Q  0.6645  10.49$  14.5$  18.01$
  Q  0.6645  9.36$  14.77$  18.87$
  Q  -1.3290  9.77$  14.82$  18.18$
  Q  0.6645  5.96$  9.82$  18.4$
  Q  0.6645  6.52$  8.99$  19.52$
  Q  -1.3290  5.92$  9.5$  19.18$
  Q  0.6645  17.64$  17.95$  7.11$
  Q  0.6645  18.44$  16.99$  7.98$
  Q  -1.3290  18.22$  17.35$  7.24$
  Q  0.6645  18.79$  11.4$  19.93$
  Q  0.6645  18.55$  11.12$  18.4$
  Q  -1.3290  18.49$  11.54$  19.15$
  Q  0.6645  4.14$  9.91$  15.5$
  Q  0.6645  5.48$  10.62$  15.15$
  Q  -1.3290  4.69$  10.54$  15.52$
  Q  0.6645  9.11$  11.14$  5.34$
  Q  0.6645  8.04$  12.32$  5.19$
  Q  -1.3290  8.52$  11.62$  4.97$
  Q  0.6645  15.46$  15.12$  3.44$
  Q  0.6645  16.31$  14.24$  4.22$
  Q  -1.3290  16.17$  14.77$  3.62$
  Q  0.6645  7.9$  20.4$  8.88$
  Q  0.6645  9$  21.16$  8.19$
  Q  -1.3290  8.68$  20.59$  8.73$
  Q  0.6645  7.8$  4.13$  2.19$
  Q  0.6645  7.65$  5.21$  3.23$
  Q  -1.3290  7.82$  4.42$  2.97$
  Q  0.6645  11.5$  4.66$  3.97$
  Q  0.6645  12.59$  5.71$  4.46$
  Q  -1.3290  11.85$  5.29$  4.46$
  Q  0.6645  9.7$  11.22$  19.58$
  Q  0.6645  8.59$  11.45$  18.79$
  Q  -1.3290  8.96$  11.54$  19.51$
  Q  0.6645  17.06$  0.07$  10.3$
  Q  0.6645  16.25$  0.79$  11.22$
  Q  -1.3290  16.82$  0.27$  11.08$
  Q  0.6645  11.97$  13.19$  16.81$
  Q  0.6645  12.51$  13.01$  15.27$
  Q  -1.3290  12.18$  12.77$  16.05$
  Q  0.6645  6.79$  2.86$  15.59$
  Q  0.6645  6.14$  2.22$  14.43$
  Q  -1.3290  6.74$  2.31$  14.97$
  Q  0.6645  6.32$  14.89$  3.84$
  Q  0.6645  6.72$  15.4$  5.18$
  Q  -1.3290  6.33$  15.47$  4.46$
  Q  0.6645  5.97$  5.1$  13.56$
  Q  0.6645  5.62$  4.71$  14.9$
  Q  -1.3290  5.48$  4.77$  14.1$
  Q  0.6645  7.09$  17.97$  16.33$
  Q  0.6645  8.05$  18.09$  15.15$
  Q  -1.3290  7.39$  17.78$  15.55$
  Q  0.6645  19.76$  5.56$  4.56$
  Q  0.6645  18.74$  4.96$  5.74$
  Q  -1.3290  19.31$  4.97$  5.03$
  Q  0.6645  3.47$  18.31$  14.33$
  Q  0.6645  2.16$  18.97$  14.79$
  Q  -1.3290  2.83$  18.44$  14.84$
  Q  0.6645  14.56$  20.51$  8.8$
  Q  0.6645  13.83$  20.42$  10.02$
  Q  -1.3290  13.99$  20.77$  9.32$
  Q  0.6645  14.14$  13.45$  16.93$
  Q  0.6645  15.48$  14.08$  17.33$
  Q  -1.3290  14.98$  13.5$  16.96$
  Q  0.6645  11.14$  3.23$  15.57$
  Q  0.6645  11.84$  3.88$  16.73$
  Q  -1.3290  11.29$  3.35$  16.39$
  Q  0.6645  14.7$  3.86$  3.1$
  Q  0.6645  14.41$  2.58$  3.84$
  Q  -1.3290  14.89$  3.1$  3.41$
  Q  0.6645  6.59$  18.16$  2.42$
  Q  0.6645  6.54$  17.15$  3.59$
  Q  -1.3290  6.89$  17.74$  3.08$
  Q  0.6645  19.26$  10.75$  16.27$
  Q  0.6645  19.5$  12.14$  15.69$
  Q  -1.3290  19.73$  11.34$  15.91$
  Q  0.6645  8.76$  3.01$  8.16$
  Q  0.6645  8.11$  4.37$  8.45$
  Q  -1.3290  8.17$  3.6$  8.08$
  Q  0.6645  18.14$  13.95$  14.92$
  Q  0.6645  17.24$  13.13$  15.76$
  Q  -1.3290  17.97$  13.49$  15.58$
  Q  0.6645  12.26$  -0.14$  9.91$
  Q  0.6645  10.87$  -0.14$  10.68$
  Q  -1.3290  11.58$  0.21$  10.31$
  Q  0.6645  18.03$  3.08$  13.82$
  Q  0.6645  18.9$  1.88$  13.56$
  Q  -1.3290  18.67$  2.55$  13.97$
  Q  0.6645  11$  14.39$  3.28$
  Q  0.6645  11.44$  14.78$  4.64$
  Q  -1.3290  11.36$  14.26$  4.02$
  Q  0.6645  9.4$  2.84$  13.01$
  Q  0.6645  8.62$  2.11$  14.22$
  Q  -1.3290  9.27$  2.48$  13.78$
  Q  0.6645  18.5$  16.01$  13.36$
  Q  0.6645  18.42$  16.16$  14.91$
  Q  -1.3290  18.21$  15.83$  14.15$
  Q  0.6645  8.56$  0.93$  9.98$
  Q  0.6645  8.67$  1.88$  11.03$
  Q  -1.3290  8.35$  1.22$  10.68$
  Q  0.6645  19.63$  7.91$  8.58$
  Q  0.6645  18.66$  7.18$  9.67$
  Q  -1.3290  18.89$  7.61$  8.93$
  Q  0.6645  9.76$  19.77$  10.42$
  Q  0.6645  9.59$  19.84$  11.92$
  Q  -1.3290  10.01$  19.91$  11.2$
  Q  0.6645  18.19$  3.7$  16.55$
  Q  0.6645  16.87$  3.51$  15.79$
  Q  -1.3290  17.37$  3.85$  16.38$
  Q  0.6645  13.68$  4.11$  17.42$
  Q  0.6645  13.28$  4.95$  18.66$
  Q  -1.3290  13.37$  4.77$  17.81$
  Q  0.6645  6.22$  19.29$  9.85$
  Q  0.6645  5.52$  20.45$  9.23$
  Q  -1.3290  6.08$  20.09$  9.72$
  Q  0.6645  10.56$  2$  7.75$
  Q  0.6645  10.72$  1.67$  9.26$
  Q  -1.3290  10.29$  1.84$  8.54$
  Q  0.6645  2.6$  8.06$  6.15$
  Q  0.6645  2.77$  9.58$  6.27$
  Q  -1.3290  3.03$  8.8$  6.17$
  Q  0.6645  1.61$  12.57$  15.74$
  Q  0.6645  0.49$  13.36$  16.56$
  Q  -1.3290  1.17$  12.83$  16.44$
  Q  0.6645  19.09$  12.2$  5.47$
  Q  0.6645  18.72$  13.48$  4.63$
  Q  -1.3290  18.87$  12.66$  4.79$
  Q  0.6645  12.46$  4.19$  8.03$
  Q  0.6645  12.36$  5.25$  9.12$
  Q  -1.3290  12.71$  4.59$  8.76$
  Q  0.6645  15.43$  16.91$  5.37$
  Q  0.6645  14.54$  17.77$  4.42$
  Q  -1.3290  15.3$  17.41$  4.7$
  Q  0.6645  14.75$  17.29$  11.31$
  Q  0.6645  15.22$  18.46$  12.46$
  Q  -1.3290  14.8$  17.75$  12.08$
  Q  0.6645  8.77$  6.14$  10.49$
  Q  0.6645  7.42$  6.04$  10.96$
  Q  -1.3290  8.03$  5.82$  10.47$
  Q  0.6645  12.32$  2.72$  6.26$
  Q  0.6645  11.58$  4.07$  6.02$
  Q  -1.3290  11.87$  3.4$  6.48$
  Q  0.6645  4.82$  2.76$  10.97$
  Q  0.6645  4.67$  4.02$  11.77$
  Q  -1.3290  4.48$  3.24$  11.58$
  Q  0.6645  9.12$  17.06$  8.18$
  Q  0.6645  9.27$  18.53$  7.89$
  Q  -1.3290  9.54$  17.74$  7.99$
  Q  0.6645  7.83$  18.54$  4.7$
  Q  0.6645  8.75$  19.68$  5.11$
  Q  -1.3290  8.32$  18.95$  5.25$
  Q  0.6645  6.65$  14.86$  17.16$
  Q  0.6645  5.14$  15.05$  17.62$
  Q  -1.3290  5.99$  14.85$  17.67$
  Q  0.6645  13.65$  19.3$  7.32$
  Q  0.6645  14.93$  18.66$  7.11$
  Q  -1.3290  14.41$  19.27$  7.04$
  Q  0.6645  18.8$  8.96$  2.04$
  Q  0.6645  19.1$  8.81$  3.6$
  Q  -1.3290  19.08$  8.58$  2.77$
  Q  0.6645  13.65$  12.1$  20.43$
  Q  0.6645  12.35$  11.77$  21.03$
  Q  -1.3290  12.86$  11.86$  20.37$
  Q  0.6645  11.5$  10.73$  1.1$
  Q  0.6645  10.27$  11.66$  1.05$
  Q  -1.3290  10.87$  11.16$  0.71$
  Q  0.6645  1.58$  15.02$  11.49$
  Q  0.6645  0.29$  15.26$  10.56$
  Q  -1.3290  1.08$  14.97$  10.77$
  Q  0.6645  16.24$  16.34$  7.35$
  Q  0.6645  15.31$  16.79$  8.25$
  Q  -1.3290  15.6$  16.8$  7.5$
  Q  0.6645  14.05$  6.43$  17.14$
  Q  0.6645  13.66$  7.58$  16.24$
  Q  -1.3290  14.15$  7.18$  16.79$
  Q  0.6645  8.62$  4.05$  11.44$
  Q  0.6645  10.11$  3.9$  11.1$
  Q  -1.3290  9.36$  3.66$  11.39$
  Q  0.6645  20.37$  12.04$  12.03$
  Q  0.6645  18.91$  11.35$  12$
  Q  -1.3290  19.5$  12.01$  11.97$
  Q  0.6645  8.74$  14.96$  16.56$
  Q  0.6645  8.01$  15.86$  15.59$
  Q  -1.3290  8.26$  15.14$  15.89$
  Q  0.6645  7.21$  3.94$  6.53$
  Q  0.6645  6.95$  3.84$  4.94$
  Q  -1.3290  6.75$  3.92$  5.78$
  Q  0.6645  14.49$  3.25$  11.41$
  Q  0.6645  13.93$  4.17$  10.3$
  Q  -1.3290  14.37$  3.99$  11.01$
  Q  0.6645  1.68$  15.67$  14.02$
  Q  0.6645  0.27$  15.11$  13.5$
  Q  -1.3290  1.02$  15.53$  13.46$
  Q  0.6645  20.58$  10.63$  6.01$
  Q  0.6645  21.66$  11.6$  5.77$
  Q  -1.3290  21.37$  10.84$  5.79$
  Q  0.6645  17.72$  7.88$  5.68$
  Q  0.6645  17.01$  8.71$  4.6$
  Q  -1.3290  17.5$  8.58$  5.31$
  Q  0.6645  16.56$  15.11$  19.07$
  Q  0.6645  15.21$  15.82$  18.9$
  Q  -1.3290  15.93$  15.46$  18.64$
  Q  0.6645  14.14$  13.18$  5.88$
  Q  0.6645  14.95$  14.48$  6.37$
  Q  -1.3290  14.24$  13.96$  6.22$
  Q  0.6645  19.52$  5.95$  11.91$
  Q  0.6645  18.43$  6.96$  12.26$
  Q  -1.3290  19.03$  6.63$  11.76$
  Q  0.6645  10.52$  16.89$  20.18$
  Q  0.6645  9.91$  16.8$  18.82$
  Q  -1.3290  10.24$  17.2$  19.48$
  Q  0.6645  15.9$  11.62$  5.72$
  Q  0.6645  17.03$  11.91$  4.71$
  Q  -1.3290  16.23$  11.92$  5$
  Q  0.6645  16.72$  2.77$  17.7$
  Q  0.6645  16.18$  2$  19.02$
  Q  -1.3290  16.52$  2.08$  18.2$
  Q  0.6645  5.92$  13.26$  2.07$
  Q  0.6645  7.41$  13.4$  2.23$
  Q  -1.3290  6.62$  13.54$  2.43$
  Q  0.6645  9.94$  17.66$  5.41$
  Q  0.6645  11.04$  16.64$  5.79$
  Q  -1.3290  10.64$  17.16$  5.27$
  Q  0.6645  8.03$  7.4$  16.01$
  Q  0.6645  9.12$  8.43$  16.57$
  Q  -1.3290  8.63$  7.72$  16.54$
  Q  0.6645  14.22$  6.58$  2.83$
  Q  0.6645  13.68$  5.62$  1.68$
  Q  -1.3290  14.1$  5.86$  2.39$
  Q  0.6645  7.25$  7.6$  2.72$
  Q  0.6645  7.09$  7.69$  4.24$
  Q  -1.3290  7.28$  7.3$  3.53$
  Q  0.6645  21.68$  9.32$  8.2$
  Q  0.6645  21.96$  7.97$  8.83$
  Q  -1.3290  21.49$  8.61$  8.56$
  Q  0.6645  20.29$  13.56$  13.83$
  Q  0.6645  21.6$  13.28$  14.33$
  Q  -1.3290  21.01$  13.76$  14.11$
  Q  0.6645  19.59$  11.17$  10.1$
  Q  0.6645  20.24$  12.46$  9.47$
  Q  -1.3290  19.79$  11.72$  9.47$
  Q  0.6645  3.09$  10.73$  13.44$
  Q  0.6645  3.78$  10.29$  12.21$
  Q  -1.3290  3.39$  10.13$  12.93$
  Q  0.6645  13.79$  10.5$  1.97$
  Q  0.6645  13.33$  9.23$  1.31$
  Q  -1.3290  13.2$  9.94$  1.78$
  Q  0.6645  13.26$  4.35$  14.23$
  Q  0.6645  12.96$  2.87$  13.83$
  Q  -1.3290  12.78$  3.64$  14.11$
  Q  0.6645  11.83$  19.85$  11.69$
  Q  0.6645  12.94$  18.88$  11.83$
  Q  -1.3290  12.62$  19.63$  11.78$
  Q  0.6645  20.09$  4.06$  13.31$
  Q  0.6645  20.38$  5.16$  14.35$
  Q  -1.3290  20.36$  4.82$  13.56$
  Q  0.6645  3.61$  14.65$  13.24$
  Q  0.6645  4.19$  14.39$  11.79$
  Q  -1.3290  3.64$  14.3$  12.47$
  Q  0.6645  15.88$  2.73$  14.24$
  Q  0.6645  15.88$  4.1$  13.53$
  Q  -1.3290  16.19$  3.34$  13.74$
  Q  0.6645  1.77$  11.86$  9.03$
  Q  0.6645  1.6$  13.07$  9.93$
  Q  -1.3290  1.8$  12.27$  9.73$
  Q  0.6645  12.57$  18.54$  2.96$
  Q  0.6645  12.14$  17.9$  4.32$
  Q  -1.3290  12.7$  18.19$  3.73$
  Q  0.6645  10.88$  8.51$  4.03$
  Q  0.6645  11.93$  9.62$  3.54$
  Q  -1.3290  11.32$  9.25$  4.09$
  Q  0.6645  13.55$  16.95$  17.93$
  Q  0.6645  12.95$  17.28$  19.23$
  Q  -1.3290  13.33$  16.75$  18.7$
  Q  0.6645  0.03$  10.59$  11.81$
  Q  0.6645  0.8$  11.8$  11.27$
  Q  -1.3290  0.3$  11.39$  11.83$
  Q  0.6645  16.02$  2.63$  7.09$
  Q  0.6645  16.76$  1.48$  6.34$
  Q  -1.3290  16.21$  1.84$  6.91$
  Q  0.6645  5.61$  12.49$  4.16$
  Q  0.6645  4.77$  11.29$  4.62$
  Q  -1.3290  4.99$  12.1$  4.57$
  Q  0.6645  12.46$  13.2$  19.03$
  Q  0.6645  12.67$  14.71$  18.68$
  Q  -1.3290  12.39$  13.9$  18.57$
  Q  0.6645  8.75$  11.88$  2.95$
  Q  0.6645  8.29$  11.59$  1.46$
  Q  -1.3290  8.72$  11.97$  2.1$
  Q  0.6645  5.01$  18.24$  12.1$
  Q  0.6645  4.8$  17.12$  10.92$
  Q  -1.3290  4.79$  17.89$  11.33$
  Q  0.6645  14.79$  7.67$  21.69$
  Q  0.6645  13.36$  8.05$  21.05$
  Q  -1.3290  14.02$  8.11$  21.62$
  Q  0.6645  10.83$  6.35$  19.58$
  Q  0.6645  9.54$  5.54$  19.37$
  Q  -1.3290  10.25$  5.73$  19.75$
  Q  0.6645  8.84$  5.74$  17.19$
  Q  0.6645  9.53$  4.34$  17.33$
  Q  -1.3290  8.89$  4.93$  17.35$
  Q  0.6645  7.91$  14.03$  7.13$
  Q  0.6645  6.43$  13.52$  7.04$
  Q  -1.3290  7.16$  13.93$  6.79$
  Q  0.6645  5.8$  19.65$  7.13$
  Q  0.6645  6.86$  18.94$  6.41$
  Q  -1.3290  6.23$  18.97$  6.96$
  Q  0.6645  15.81$  11.93$  1.66$
  Q  0.6645  15.3$  11.76$  3.12$
  Q  -1.3290  15.25$  11.69$  2.26$
  Q  0.6645  6.96$  10.04$  5.01$
  Q  0.6645  5.66$  9.26$  5.09$
  Q  -1.3290  6.5$  9.35$  5.13$
  Q  0.6645  17.53$  14.97$  6.08$
  Q  0.6645  16.83$  13.87$  6.95$
  Q  -1.3290  16.86$  14.59$  6.5$
  Q  0.6645  8.7$  16.25$  2.88$
  Q  0.6645  10.06$  16.51$  3.64$
  Q  -1.3290  9.57$  16.24$  3.02$
  Q  0.6645  17.64$  17.18$  10.59$
  Q  0.6645  17.18$  15.84$  10.06$
  Q  -1.3290  17.51$  16.6$  10.01$
  Q  0.6645  5.72$  19.35$  17.76$
  Q  0.6645  7.01$  20$  17.88$
  Q  -1.3290  6.54$  19.35$  17.86$
  Q  0.6645  7.94$  4.51$  14.16$
  Q  0.6645  7.47$  5.89$  13.96$
  Q  -1.3290  7.89$  5.22$  13.73$
  Q  0.6645  13.4$  9.91$  17.52$
  Q  0.6645  12.69$  10.59$  18.63$
  Q  -1.3290  12.8$  9.96$  18.09$
  Q  0.6645  13.88$  1.28$  18.23$
  Q  0.6645  12.66$  1.96$  17.82$
  Q  -1.3290  13.45$  1.88$  17.82$
  Q  0.6645  1.71$  14.92$  8.86$
  Q  0.6645  1.76$  14.61$  7.34$
  Q  -1.3290  2.09$  14.77$  8.11$
  Q  0.6645  3.05$  7.44$  15.08$
  Q  0.6645  3.54$  8.52$  14.16$
  Q  -1.3290  3.58$  8.02$  14.84$
  Q  0.6645  9.01$  20.11$  14.27$
  Q  0.6645  8.11$  20.57$  13.11$
  Q  -1.3290  8.55$  20.02$  13.57$
  Q  0.6645  17.14$  5.99$  7.12$
  Q  0.6645  18.29$  6.83$  7.42$
  Q  -1.3290  17.86$  6.31$  6.94$
  Q  0.6645  14.39$  10.6$  7.38$
  Q  0.6645  13.28$  11.39$  6.83$
  Q  -1.3290  14.02$  11.29$  7.17$
  Q  0.6645  13.94$  7.99$  5.38$
  Q  0.6645  12.58$  7.88$  4.88$
  Q  -1.3290  13.39$  7.71$  4.87$
  Q  0.6645  4.16$  3.48$  7.73$
  Q  0.6645  5.24$  4.27$  7.01$
  Q  -1.3290  4.7$  4.12$  7.65$
  Q  0.6645  17.73$  9.23$  17.94$
  Q  0.6645  18.32$  8.67$  16.69$
  Q  -1.3290  18.34$  9.1$  17.41$
  Q  0.6645  20.69$  9.33$  10.23$
  Q  0.6645  20.38$  8.64$  11.55$
  Q  -1.3290  20.51$  9.3$  11.04$
  Q  0.6645  19.48$  18.1$  12.39$
  Q  0.6645  17.92$  18.12$  12.45$
  Q  -1.3290  18.67$  17.8$  12.26$
  Q  0.6645  17.52$  11.76$  8.08$
  Q  0.6645  16.95$  12.76$  9.09$
  Q  -1.3290  17.09$  12.44$  8.33$
  Q  0.6645  7.08$  22.22$  12.1$
  Q  0.6645  6.35$  20.96$  11.59$
  Q  -1.3290  6.58$  21.54$  12.16$
  Q  0.6645  9.15$  8.71$  20.56$
  Q  0.6645  10.04$  9.73$  21.45$
  Q  -1.3290  9.72$  8.94$  21.18$
  Q  0.6645  6.35$  2.76$  8.88$
  Q  0.6645  6.74$  1.69$  10.07$
  Q  -1.3290  6.24$  2.18$  9.54$
  Q  0.6645  8.73$  21.11$  16.26$
  Q  0.6645  10.38$  20.99$  15.76$
  Q  -1.3290  9.53$  20.71$  16$
  Q  0.6645  1.38$  11.92$  13.54$
  Q  0.6645  2.43$  12.89$  13.62$
  Q  -1.3290  2.02$  12.28$  13.92$
  Q  0.6645  3.23$  18.7$  10.26$
  Q  0.6645  1.89$  19.1$  9.59$
  Q  -1.3290  2.67$  19.26$  9.89$
  Q  0.6645  6.26$  14.56$  19.61$
  Q  0.6645  5.69$  13.78$  20.68$
  Q  -1.3290  6.12$  14.43$  20.42$
*
