! NoMOPrint PrintBasis #MINIPRINT SMALLPRINT LARGEPRINT
! ALLPOP XYZFILE
#! BP86 3-21G   TightSCF
! ENGRAD
! B3LYP NormalPNO PModel #DecontractAux
#! VerySlowConv 
 %maxcore 5000
 %scf  maxiter   500  end 

%pal
    nprocs 32
end

%basis
    NewGTO O    # New basis for oxygen
        "aug-cc-pVTZ"
    end
    NewGTO C    # New basis for carbon
        "aug-cc-pVTZ"
    end
    NewGTO H    # New basis for hydrogen
        "cc-pVTZ"
    end
end

* xyz 0   1
  C  10.69  12.8  10.02  #1
  H  10.28  13.11  9.05  #2
  H  11.7  13.22  10.19  #3
  C  10.99  11.28  10.1  #4
  H  10.12  10.63  10.12  #5
  H  11.49  10.87  9.25  #6
  C  11.87  10.92  11.37  #7
  H  11.53  11.43  12.25  #8
  H  12.89  11.29  11.3  #9
  C  12.03  9.41  11.75  #10
  H  11.04  8.98  11.66  #11
  H  12.26  9.25  12.78  #12
  O  12.91  8.61  10.89  #13
  H  12.73  8.91  9.94  #14
  O  9.72  13.17  10.97  #15
  H  8.91  12.87  10.57  #16
  O  11.25  8.43  14.99  #17
  H  11.29  8.87  15.85  #18
  H  12.01  7.84  14.86  #19
  O  8.01  10.88  13.06  #20
  H  8.33  10.11  13.55  #21
  H  8.6  11.6  13.22  #22
  O  6.88  13.14  9.77  #23
  H  6.93  14  9.27  #24
  H  6.11  13.1  10.33  #25
  O  12.69  9.08  7.89  #26
  H  11.84  9.48  7.97  #27
  H  13.31  9.79  8.03  #28
  O  14.05  11.91  8.27  #29
  H  15  11.64  8.45  #30
  H  13.89  12.59  8.96  #31
  O  9.86  13.26  13.89  #32
  H  9.97  13.72  13.04  #33
  H  9.5  13.97  14.46  #34
  O  10.29  13.14  7.06  #35
  H  9.56  13.25  6.36  #36
  H  11.07  12.89  6.58  #37
  O  6.67  10.76  8.79  #38
  H  6.89  11.62  9.14  #39
  H  6.88  10.13  9.47  #40
  O  15.39  12.06  12.87  #41
  H  15.7  11.25  12.38  #42
  H  15.19  12.77  12.22  #43
  O  7.1  15.48  8.27  #44
  H  6.51  16.18  7.94  #45
  H  7.44  15  7.52  #46
  O  16.85  11.18  8.73  #47
  H  17.13  12.02  9.05  #48
  H  17.01  10.62  9.5  #49
  O  12.7  12.23  5.95  #50
  H  12.84  13.15  5.75  #51
  H  13.15  12.15  6.77  #52
  O  11.05  7.09  7.46  #53
  H  11.82  7.68  7.5  #54
  H  10.82  7.19  6.52  #55
  O  15.24  7.21  11.84  #56
  H  15.31  7.13  12.8  #57
  H  14.39  7.63  11.72  #58
  O  11.42  12.35  15.99  #59
  H  10.83  12.42  15.21  #60
  H  11.25  13.07  16.64  #61
  O  7.1  8.95  11.11  #62
  H  7.58  8.19  11.41  #63
  H  7.36  9.6  11.78  #64
  O  9.48  10.32  7.46  #65
  H  8.64  9.96  7.77  #66
  H  9.39  11.31  7.38  #67
  O  11.04  9.8  17.47  #68
  H  10.07  9.46  17.41  #69
  H  11.09  10.65  16.96  #70
  O  9.35  15.39  15.78  #71
  H  8.87  15.99  15.19  #72
  H  8.66  15.01  16.31  #73
  O  8.16  15.66  11.68  #74
  H  8.55  14.88  11.27  #75
  H  7.29  15.42  11.89  #76
  O  8.72  8.52  14.02  #77
  H  8.3  7.68  14.06  #78
  H  9.6  8.43  14.36  #79
  O  12.75  6.31  14.22  #80
  H  12.02  5.85  14.71  #81
  H  12.57  6.12  13.28  #82
  O  14.1  13.8  10.47  #83
  H  14.89  14.3  10.67  #84
  H  13.58  14.01  11.23  #85
  O  5.45  11.74  11.76  #86
  H  5.2  10.97  11.22  #87
  H  6.22  11.36  12.23  #88
  O  11.66  15.38  7.77  #89
  H  11.4  15.78  8.6  #90
  H  11.1  14.59  7.61  #91
  Q  0.6645  3.25$  16.7$  5.12$
  Q  0.6645  4.64$  16.78$  5.8$
  Q  -1.3290  4.09$  16.6$  5.15$
  Q  0.6645  4.31$  8.16$  12.43$
  Q  0.6645  4.1$  8.11$  14.01$
  Q  -1.3290  4.19$  7.8$  13.23$
  Q  0.6645  14.99$  12.23$  16.94$
  Q  0.6645  15.69$  12.42$  18.38$
  Q  -1.3290  15.62$  12.22$  17.54$
  Q  0.6645  13.88$  16.47$  15.43$
  Q  0.6645  12.56$  16.94$  16.23$
  Q  -1.3290  13.33$  17.01$  15.81$
  Q  0.6645  18.69$  10.05$  15.77$
  Q  0.6645  17.59$  9.57$  16.88$
  Q  -1.3290  18.36$  9.68$  16.51$
  Q  0.6645  13.06$  13.41$  3.57$
  Q  0.6645  12.9$  12.93$  2.12$
  Q  -1.3290  12.64$  13.15$  2.89$
  Q  0.6645  20.46$  11.45$  18.27$
  Q  0.6645  19.35$  10.39$  17.91$
  Q  -1.3290  20.07$  10.69$  18.27$
  Q  0.6645  19.01$  15.66$  16.23$
  Q  0.6645  17.94$  16.53$  15.64$
  Q  -1.3290  18.56$  16.36$  16.15$
  Q  0.6645  4.84$  12.27$  13.32$
  Q  0.6645  4.92$  12.6$  14.97$
  Q  -1.3290  4.6$  12.54$  14.14$
  Q  0.6645  11.59$  17.32$  11.54$
  Q  0.6645  10.94$  17.51$  12.92$
  Q  -1.3290  11.58$  17.46$  12.4$
  Q  0.6645  9.58$  3.66$  13.37$
  Q  0.6645  8.82$  4.95$  13.96$
  Q  -1.3290  9.44$  4.5$  13.53$
  Q  0.6645  7.76$  13.72$  1.91$
  Q  0.6645  8.72$  12.55$  1.69$
  Q  -1.3290  8.14$  13.12$  1.46$
  Q  0.6645  21.85$  8.1$  12.27$
  Q  0.6645  20.71$  7.09$  12.35$
  Q  -1.3290  21.08$  7.77$  12.08$
  Q  0.6645  17.99$  3.26$  4.51$
  Q  0.6645  18.61$  3.89$  5.85$
  Q  -1.3290  18.61$  3.51$  5.06$
  Q  0.6645  9.85$  9.97$  5.77$
  Q  0.6645  10.36$  8.97$  4.82$
  Q  -1.3290  10.12$  9.74$  5.04$
  Q  0.6645  13.4$  8.81$  20.18$
  Q  0.6645  14.72$  8.65$  19.23$
  Q  -1.3290  14.25$  8.74$  19.95$
  Q  0.6645  2.86$  6.42$  13.29$
  Q  0.6645  1.78$  5.71$  14.17$
  Q  -1.3290  2.19$  5.92$  13.46$
  Q  0.6645  13.15$  19.71$  10.9$
  Q  0.6645  13.06$  18.66$  11.96$
  Q  -1.3290  13.48$  19.12$  11.41$
  Q  0.6645  19.89$  10.78$  10.68$
  Q  0.6645  20.35$  11.98$  9.95$
  Q  -1.3290  19.89$  11.56$  10.5$
  Q  0.6645  7.22$  2.99$  14.29$
  Q  0.6645  6.75$  3.7$  15.64$
  Q  -1.3290  7.09$  3.07$  15.14$
  Q  0.6645  14.91$  3.91$  14.9$
  Q  0.6645  14.02$  3.82$  13.57$
  Q  -1.3290  14.61$  3.57$  14.16$
  Q  0.6645  11.83$  3.76$  11.93$
  Q  0.6645  10.67$  4.71$  11.91$
  Q  -1.3290  11.39$  4.41$  11.64$
  Q  0.6645  5.58$  11.75$  17.21$
  Q  0.6645  4.19$  12.43$  17.35$
  Q  -1.3290  4.96$  12.26$  17$
  Q  0.6645  13.25$  3.03$  19.97$
  Q  0.6645  12.12$  3.85$  19.35$
  Q  -1.3290  12.52$  3.13$  19.59$
  Q  0.6645  6.95$  8.15$  3.93$
  Q  0.6645  7.01$  7.54$  5.19$
  Q  -1.3290  7.25$  7.58$  4.41$
  Q  0.6645  8.69$  7.71$  9.84$
  Q  0.6645  9.62$  7.85$  8.57$
  Q  -1.3290  8.91$  7.98$  9.06$
  Q  0.6645  14.82$  18.01$  10.24$
  Q  0.6645  15.81$  18.29$  9.13$
  Q  -1.3290  15.36$  17.81$  9.65$
  Q  0.6645  11.31$  1.39$  6.87$
  Q  0.6645  11.69$  0.77$  8.21$
  Q  -1.3290  11.79$  1.26$  7.52$
  Q  0.6645  9.4$  6.98$  4.81$
  Q  0.6645  10.75$  6.23$  4.22$
  Q  -1.3290  10.28$  6.82$  4.69$
  Q  0.6645  1.43$  14.92$  7.58$
  Q  0.6645  1.79$  15.95$  8.62$
  Q  -1.3290  1.7$  15.19$  8.35$
  Q  0.6645  -0.31$  7.03$  9.82$
  Q  0.6645  -0.18$  6.7$  8.35$
  Q  -1.3290  0.11$  6.89$  9.13$
  Q  0.6645  14.84$  10.9$  5.58$
  Q  0.6645  15.79$  9.78$  5.99$
  Q  -1.3290  15.59$  10.53$  5.72$
  Q  0.6645  9.6$  1.64$  5.34$
  Q  0.6645  10.7$  2.71$  5.37$
  Q  -1.3290  10.35$  1.96$  5.2$
  Q  0.6645  13.25$  6.8$  4.45$
  Q  0.6645  14.73$  6.9$  4.59$
  Q  -1.3290  13.94$  7.17$  4.66$
  Q  0.6645  10.48$  18.47$  18.19$
  Q  0.6645  10.21$  19.6$  19.28$
  Q  -1.3290  10.11$  19.15$  18.54$
  Q  0.6645  11.23$  5.28$  17$
  Q  0.6645  10.84$  4.07$  16$
  Q  -1.3290  11.36$  4.64$  16.4$
  Q  0.6645  5.38$  18.34$  4.51$
  Q  0.6645  6.83$  18.87$  4.79$
  Q  -1.3290  6.02$  18.75$  4.95$
  Q  0.6645  13.87$  4.67$  7.78$
  Q  0.6645  14.2$  3.46$  6.77$
  Q  -1.3290  14.34$  4.17$  7.22$
  Q  0.6645  12.58$  10.31$  5$
  Q  0.6645  13.41$  8.98$  4.65$
  Q  -1.3290  13.13$  9.8$  4.6$
  Q  0.6645  17.7$  19.99$  7.73$
  Q  0.6645  16.18$  20.15$  7.49$
  Q  -1.3290  16.88$  19.78$  7.82$
  Q  0.6645  8.62$  16.86$  13.05$
  Q  0.6645  8.35$  18.06$  14.09$
  Q  -1.3290  8.81$  17.48$  13.64$
  Q  0.6645  10.82$  20.64$  13.09$
  Q  0.6645  9.58$  19.59$  12.81$
  Q  -1.3290  10.24$  20.14$  12.63$
  Q  0.6645  11.43$  9.4$  19.19$
  Q  0.6645  11.09$  9.01$  20.7$
  Q  -1.3290  11.41$  8.91$  19.92$
  Q  0.6645  9.91$  19.1$  5.02$
  Q  0.6645  9.25$  20.3$  5.8$
  Q  -1.3290  9.73$  19.62$  5.7$
  Q  0.6645  3.99$  9.51$  5.13$
  Q  0.6645  3.7$  9.15$  6.65$
  Q  -1.3290  3.53$  9.21$  5.8$
  Q  0.6645  12.29$  19.03$  14.26$
  Q  0.6645  12.58$  19.99$  15.35$
  Q  -1.3290  12.23$  19.77$  14.63$
  Q  0.6645  6.4$  3.64$  12.38$
  Q  0.6645  7.44$  2.76$  11.66$
  Q  -1.3290  6.95$  3.01$  12.32$
  Q  0.6645  15.07$  14.04$  4.99$
  Q  0.6645  14.12$  15.29$  5.12$
  Q  -1.3290  14.37$  14.5$  4.83$
  Q  0.6645  6.22$  10.11$  4.97$
  Q  0.6645  6.57$  10.22$  3.48$
  Q  -1.3290  6.26$  9.83$  4.19$
  Q  0.6645  19.6$  16.09$  12.8$
  Q  0.6645  18.29$  15.68$  13.27$
  Q  -1.3290  19.06$  15.54$  13.06$
  Q  0.6645  17.19$  15.52$  3.25$
  Q  0.6645  17.16$  14.08$  3.87$
  Q  -1.3290  17.5$  14.77$  3.5$
  Q  0.6645  19.12$  13.23$  15.36$
  Q  0.6645  19.67$  14.23$  14.4$
  Q  -1.3290  19.71$  13.68$  15.03$
  Q  0.6645  19.59$  9.53$  8.49$
  Q  0.6645  20.21$  9.48$  7.13$
  Q  -1.3290  19.94$  9.87$  7.8$
  Q  0.6645  5.66$  18.25$  6.9$
  Q  0.6645  5.41$  18$  8.42$
  Q  -1.3290  5.47$  17.82$  7.61$
  Q  0.6645  17.74$  3.67$  12.6$
  Q  0.6645  16.5$  3.45$  13.5$
  Q  -1.3290  17.32$  3.44$  13.29$
  Q  0.6645  7.94$  5.27$  17.93$
  Q  0.6645  7.15$  6.62$  17.5$
  Q  -1.3290  7.62$  5.9$  17.42$
  Q  0.6645  14.94$  1.69$  14.97$
  Q  0.6645  13.97$  1.14$  16.04$
  Q  -1.3290  14.71$  1.27$  15.67$
  Q  0.6645  16.31$  9.17$  11.56$
  Q  0.6645  17.46$  10$  12.14$
  Q  -1.3290  16.77$  9.88$  11.68$
  Q  0.6645  14.89$  10.73$  22.29$
  Q  0.6645  14.85$  10.26$  20.83$
  Q  -1.3290  15.08$  10.76$  21.46$
  Q  0.6645  15.49$  3.13$  10.76$
  Q  0.6645  15.86$  2.24$  9.47$
  Q  -1.3290  15.96$  2.6$  10.24$
  Q  0.6645  3.92$  14.27$  7.19$
  Q  0.6645  3.28$  12.82$  6.82$
  Q  -1.3290  3.86$  13.5$  6.83$
  Q  0.6645  11.47$  4.34$  7.5$
  Q  0.6645  10.78$  5.11$  6.38$
  Q  -1.3290  10.98$  4.42$  6.82$
  Q  0.6645  15.57$  6.21$  15.31$
  Q  0.6645  16.72$  6.99$  14.55$
  Q  -1.3290  15.93$  6.85$  14.84$
  Q  0.6645  7.85$  14.26$  5.46$
  Q  0.6645  7.05$  12.98$  5.83$
  Q  -1.3290  7.57$  13.66$  5.99$
  Q  0.6645  1.19$  11.71$  6.12$
  Q  0.6645  1.43$  11.13$  7.55$
  Q  -1.3290  1.23$  11.72$  6.97$
  Q  0.6645  14.45$  3.03$  3.26$
  Q  0.6645  13.19$  2.97$  2.56$
  Q  -1.3290  13.66$  3.12$  3.23$
  Q  0.6645  3.25$  9.86$  11.14$
  Q  0.6645  4.13$  9.19$  9.94$
  Q  -1.3290  3.94$  9.47$  10.76$
  Q  0.6645  9.56$  19.79$  16.82$
  Q  0.6645  10.09$  20.22$  15.4$
  Q  -1.3290  9.53$  20.1$  16.01$
  Q  0.6645  4.06$  4.51$  16.26$
  Q  0.6645  4.96$  5.48$  16.97$
  Q  -1.3290  4.8$  4.8$  16.53$
  Q  0.6645  16.27$  16.06$  12.31$
  Q  0.6645  16.09$  16.14$  10.82$
  Q  -1.3290  16.11$  15.76$  11.56$
  Q  0.6645  15.3$  9.69$  17.38$
  Q  0.6645  15.55$  8.31$  16.87$
  Q  -1.3290  15.63$  8.93$  17.41$
  Q  0.6645  4.51$  7.42$  17.86$
  Q  0.6645  5.55$  6.67$  18.77$
  Q  -1.3290  5.29$  7.2$  18.18$
  Q  0.6645  11.68$  16.37$  3.89$
  Q  0.6645  10.41$  15.77$  3.2$
  Q  -1.3290  10.87$  16.35$  3.61$
  Q  0.6645  8.15$  12.05$  20.87$
  Q  0.6645  9.66$  11.88$  20.64$
  Q  -1.3290  8.85$  11.67$  20.55$
  Q  0.6645  6.53$  5.77$  4.56$
  Q  0.6645  5.25$  5.49$  5.26$
  Q  -1.3290  5.96$  5.29$  4.9$
  Q  0.6645  12.16$  13.03$  21.12$
  Q  0.6645  12.18$  12.13$  19.98$
  Q  -1.3290  11.86$  12.36$  20.67$
  Q  0.6645  6.9$  7.19$  8.14$
  Q  0.6645  6.35$  5.91$  7.55$
  Q  -1.3290  6.54$  6.74$  7.53$
  Q  0.6645  8.28$  6.38$  2.94$
  Q  0.6645  8.36$  5.05$  2.41$
  Q  -1.3290  8.47$  5.88$  2.37$
  Q  0.6645  15.09$  13.01$  2.35$
  Q  0.6645  14.76$  14.49$  2.59$
  Q  -1.3290  14.95$  13.8$  2.12$
  Q  0.6645  10.92$  16.44$  18.4$
  Q  0.6645  10.33$  16.36$  17.07$
  Q  -1.3290  10.83$  16.69$  17.63$
  Q  0.6645  9.11$  3.24$  18.46$
  Q  0.6645  8.08$  3.07$  19.55$
  Q  -1.3290  8.4$  3.45$  18.87$
  Q  0.6645  10.26$  1.74$  12.37$
  Q  0.6645  10.73$  2.04$  13.85$
  Q  -1.3290  10.83$  1.92$  13$
  Q  0.6645  5.36$  8.35$  7.95$
  Q  0.6645  5.39$  9.85$  8.33$
  Q  -1.3290  5.03$  9.1$  8.15$
  Q  0.6645  18.55$  13.32$  10.26$
  Q  0.6645  17.31$  14.15$  10.7$
  Q  -1.3290  17.78$  13.64$  10.16$
  Q  0.6645  3.65$  4.17$  13.06$
  Q  0.6645  4.22$  2.77$  13.09$
  Q  -1.3290  4.07$  3.54$  12.78$
  Q  0.6645  18.08$  5.23$  7.89$
  Q  0.6645  19.56$  4.75$  8.06$
  Q  -1.3290  18.86$  4.93$  7.64$
  Q  0.6645  20.64$  14.55$  9.82$
  Q  0.6645  20.03$  14.76$  11.19$
  Q  -1.3290  20.67$  14.64$  10.66$
  Q  0.6645  18$  5.58$  19.43$
  Q  0.6645  18.66$  6.09$  18.08$
  Q  -1.3290  18.64$  5.86$  18.9$
  Q  0.6645  16.32$  6.58$  9.04$
  Q  0.6645  15.9$  5.16$  8.76$
  Q  -1.3290  16.45$  5.82$  8.84$
  Q  0.6645  17.44$  6.87$  12.15$
  Q  0.6645  18.63$  6.19$  12.89$
  Q  -1.3290  17.98$  6.73$  12.77$
  Q  0.6645  17.2$  11.97$  14.6$
  Q  0.6645  17.1$  12.22$  16.07$
  Q  -1.3290  17.5$  12.21$  15.34$
  Q  0.6645  2.57$  9.41$  14.45$
  Q  0.6645  3.64$  10.41$  14.85$
  Q  -1.3290  3.2$  9.72$  14.93$
  Q  0.6645  17.92$  3.9$  10.29$
  Q  0.6645  19.43$  3.86$  10.76$
  Q  -1.3290  18.63$  4.13$  10.75$
  Q  0.6645  7.36$  5.7$  15.5$
  Q  0.6645  6.44$  6.06$  14.31$
  Q  -1.3290  7.19$  5.87$  14.72$
  Q  0.6645  16.47$  15.67$  7.5$
  Q  0.6645  17.21$  14.72$  8.47$
  Q  -1.3290  17.06$  15.09$  7.72$
  Q  0.6645  21.93$  13$  8.27$
  Q  0.6645  20.6$  12.75$  7.71$
  Q  -1.3290  21.12$  12.86$  8.35$
  Q  0.6645  13.52$  16.03$  7.29$
  Q  0.6645  14.58$  16.8$  8.01$
  Q  -1.3290  14.31$  16.25$  7.43$
  Q  0.6645  9.67$  16.64$  1.01$
  Q  0.6645  9.01$  17.17$  -0.43$
  Q  -1.3290  9.36$  17.24$  0.4$
  Q  0.6645  7.59$  11.2$  18.94$
  Q  0.6645  6.12$  10.64$  18.88$
  Q  -1.3290  6.83$  10.96$  18.55$
  Q  0.6645  15.16$  7.61$  1.41$
  Q  0.6645  15.1$  8.05$  -0.15$
  Q  -1.3290  15.15$  7.48$  0.54$
  Q  0.6645  7.51$  2.62$  6.18$
  Q  0.6645  7.37$  4.07$  5.98$
  Q  -1.3290  7.81$  3.36$  5.98$
  Q  0.6645  18.71$  5.17$  16.2$
  Q  0.6645  18.3$  4.05$  15.29$
  Q  -1.3290  18.42$  4.41$  16.03$
  Q  0.6645  17.34$  8.36$  7$
  Q  0.6645  16.68$  9.52$  7.83$
  Q  -1.3290  16.76$  8.72$  7.52$
  Q  0.6645  4.03$  21.59$  10.82$
  Q  0.6645  4.68$  20.09$  10.55$
  Q  -1.3290  4.64$  20.96$  10.68$
  Q  0.6645  2.36$  17.43$  14.32$
  Q  0.6645  2.88$  16.37$  13.2$
  Q  -1.3290  2.66$  17.14$  13.54$
  Q  0.6645  2.56$  18.49$  8.95$
  Q  0.6645  1.91$  17.67$  10.06$
  Q  -1.3290  2.46$  17.81$  9.44$
  Q  0.6645  8.31$  8.83$  16.36$
  Q  0.6645  7.8$  9.5$  17.67$
  Q  -1.3290  8.27$  8.99$  17.18$
  Q  0.6645  20.66$  4.67$  13.06$
  Q  0.6645  20.9$  5.73$  14.21$
  Q  -1.3290  20.51$  5.35$  13.52$
  Q  0.6645  6.05$  17.33$  17.49$
  Q  0.6645  5.35$  16.82$  16.19$
  Q  -1.3290  5.61$  16.77$  17.01$
  Q  0.6645  12.21$  19.73$  8.68$
  Q  0.6645  11.04$  20.42$  9.51$
  Q  -1.3290  11.86$  20.22$  9.32$
  Q  0.6645  20.53$  12.18$  12.44$
  Q  0.6645  20.67$  12.5$  13.97$
  Q  -1.3290  20.76$  12.02$  13.25$
  Q  0.6645  20.36$  6.8$  6.34$
  Q  0.6645  21.62$  6.12$  5.99$
  Q  -1.3290  21.17$  6.64$  6.41$
  Q  0.6645  13.17$  12.34$  15.47$
  Q  0.6645  14.28$  11.72$  14.44$
  Q  -1.3290  13.96$  12.21$  15.09$
  Q  0.6645  11.77$  19.52$  6.39$
  Q  0.6645  13.24$  19.87$  6.52$
  Q  -1.3290  12.52$  19.45$  6.69$
  Q  0.6645  4.2$  18.11$  10.31$
  Q  0.6645  5.64$  17.81$  10.86$
  Q  -1.3290  5.06$  18.21$  10.38$
  Q  0.6645  7.52$  5.92$  11.07$
  Q  0.6645  8.64$  5.99$  12.03$
  Q  -1.3290  8.28$  6.19$  11.32$
  Q  0.6645  18.62$  12.7$  6.2$
  Q  0.6645  19.49$  11.5$  6.81$
  Q  -1.3290  19.34$  12.25$  6.38$
  Q  0.6645  10.55$  1.75$  15.91$
  Q  0.6645  9.1$  2.23$  15.58$
  Q  -1.3290  9.91$  2.13$  15.45$
  Q  0.6645  16.78$  20.24$  9.9$
  Q  0.6645  17.66$  20.85$  10.94$
  Q  -1.3290  17.32$  20.22$  10.51$
  Q  0.6645  8.92$  9.88$  3.31$
  Q  0.6645  8.58$  9.7$  1.75$
  Q  -1.3290  8.52$  10.06$  2.56$
  Q  0.6645  19.48$  18.63$  12.72$
  Q  0.6645  18.81$  18$  11.35$
  Q  -1.3290  19.33$  18.07$  12.08$
  Q  0.6645  4.67$  13.04$  3.22$
  Q  0.6645  4.31$  13.86$  4.51$
  Q  -1.3290  4.56$  13.71$  3.71$
  Q  0.6645  2.38$  14.11$  12.08$
  Q  0.6645  3.32$  14.1$  13.36$
  Q  -1.3290  2.89$  14.43$  12.7$
  Q  0.6645  12.11$  0.62$  17.44$
  Q  0.6645  12.39$  2.08$  17.75$
  Q  -1.3290  12.17$  1.43$  17.27$
  Q  0.6645  15.82$  19.34$  16.74$
  Q  0.6645  14.75$  18.18$  16.67$
  Q  -1.3290  15.2$  18.85$  17.03$
  Q  0.6645  0.61$  13.67$  10.97$
  Q  0.6645  1.63$  14.02$  9.94$
  Q  -1.3290  1.35$  13.63$  10.62$
  Q  0.6645  9.37$  16.39$  4.93$
  Q  0.6645  7.87$  16$  4.63$
  Q  -1.3290  8.55$  16.26$  5.1$
  Q  0.6645  8.23$  1.25$  10.22$
  Q  0.6645  8.84$  2.74$  10.01$
  Q  -1.3290  8.67$  1.97$  10.43$
  Q  0.6645  19.08$  8.86$  5.25$
  Q  0.6645  18.75$  7.4$  4.97$
  Q  -1.3290  18.84$  8.09$  5.48$
  Q  0.6645  16.58$  13.57$  6.22$
  Q  0.6645  16.51$  12.1$  5.53$
  Q  -1.3290  16.64$  12.98$  5.58$
  Q  0.6645  4.64$  15.34$  12.04$
  Q  0.6645  5.25$  16.35$  12.89$
  Q  -1.3290  5.26$  15.85$  12.23$
  Q  0.6645  13.27$  1.44$  6.36$
  Q  0.6645  13.54$  1.72$  4.82$
  Q  -1.3290  13.73$  1.52$  5.63$
  Q  0.6645  4.34$  17.58$  14.12$
  Q  0.6645  5.72$  18.02$  14.64$
  Q  -1.3290  5.07$  17.47$  14.55$
  Q  0.6645  19.69$  8.32$  10.65$
  Q  0.6645  18.3$  8.86$  10.54$
  Q  -1.3290  19.09$  8.8$  10.32$
  Q  0.6645  11.08$  14.77$  0.57$
  Q  0.6645  9.73$  14.35$  1.1$
  Q  -1.3290  10.36$  14.88$  0.99$
  Q  0.6645  12.81$  17.5$  5.44$
  Q  0.6645  13.67$  17.45$  4.18$
  Q  -1.3290  13.19$  17.13$  4.79$
  Q  0.6645  5.55$  10.95$  1.67$
  Q  0.6645  6.69$  11.97$  1.97$
  Q  -1.3290  5.92$  11.61$  2.07$
  Q  0.6645  19.48$  10.41$  13.45$
  Q  0.6645  19.34$  8.89$  13.37$
  Q  -1.3290  19.07$  9.67$  13.43$
  Q  0.6645  15.23$  14.61$  18.99$
  Q  0.6645  14.42$  15.96$  18.86$
  Q  -1.3290  14.75$  15.22$  18.58$
  Q  0.6645  12.56$  14.34$  13.67$
  Q  0.6645  12.26$  15.44$  12.61$
  Q  -1.3290  12.52$  14.68$  12.91$
  Q  0.6645  9.18$  19.23$  9.19$
  Q  0.6645  9.58$  20.04$  10.53$
  Q  -1.3290  9.36$  19.92$  9.72$
  Q  0.6645  16.7$  7.22$  3.57$
  Q  0.6645  16.7$  8.71$  3.1$
  Q  -1.3290  16.54$  7.87$  3.07$
  Q  0.6645  15.16$  14.88$  16.34$
  Q  0.6645  14.78$  13.99$  15.19$
  Q  -1.3290  14.99$  14.7$  15.53$
  Q  0.6645  1.51$  10.38$  10.34$
  Q  0.6645  1.62$  11.75$  11.22$
  Q  -1.3290  1.58$  10.9$  11.06$
  Q  0.6645  10.75$  18.13$  3.19$
  Q  0.6645  9.94$  19.3$  2.51$
  Q  -1.3290  10.42$  18.92$  3.1$
  Q  0.6645  5.35$  12$  6.46$
  Q  0.6645  6.42$  11.09$  7.02$
  Q  -1.3290  5.95$  11.39$  6.41$
  Q  0.6645  15.32$  6.01$  18.83$
  Q  0.6645  15.83$  6.39$  20.28$
  Q  -1.3290  15.84$  6$  19.52$
  Q  0.6645  12.6$  22.27$  12.49$
  Q  0.6645  13.12$  21.14$  13.31$
  Q  -1.3290  13.18$  21.79$  12.8$
  Q  0.6645  15.92$  10.89$  2.65$
  Q  0.6645  14.5$  10.73$  3.25$
  Q  -1.3290  15.07$  11.01$  2.68$
  Q  0.6645  4.35$  4.92$  8.41$
  Q  0.6645  3.19$  5.14$  9.26$
  Q  -1.3290  3.7$  5.35$  8.64$
  Q  0.6645  13.73$  4.75$  10.76$
  Q  0.6645  14.93$  5.11$  11.67$
  Q  -1.3290  14.34$  4.6$  11.32$
  Q  0.6645  13.91$  21.12$  9.55$
  Q  0.6645  14.99$  21.45$  10.56$
  Q  -1.3290  14.68$  21.33$  9.78$
  Q  0.6645  16.36$  6.32$  6.08$
  Q  0.6645  16.09$  5.06$  5.34$
  Q  -1.3290  16.35$  5.83$  5.41$
  Q  0.6645  18.49$  5.6$  4.32$
  Q  0.6645  18.5$  6.16$  2.9$
  Q  -1.3290  18.67$  6.15$  3.72$
  Q  0.6645  16.27$  15.93$  14.43$
  Q  0.6645  16.45$  17.38$  13.8$
  Q  -1.3290  16.69$  16.59$  14.08$
  Q  0.6645  9.8$  16.39$  10.21$
  Q  0.6645  10.35$  17.43$  9.37$
  Q  -1.3290  10.44$  16.86$  9.96$
  Q  0.6645  18.49$  15.64$  4.92$
  Q  0.6645  18.57$  15.56$  6.48$
  Q  -1.3290  18.79$  15.82$  5.69$
  Q  0.6645  16.61$  19.22$  12.19$
  Q  0.6645  15.13$  19.38$  12.57$
  Q  -1.3290  15.95$  19.16$  12.73$
  Q  0.6645  6.36$  21.59$  9.99$
  Q  0.6645  7.81$  21.14$  9.65$
  Q  -1.3290  7.11$  21.64$  9.64$
  Q  0.6645  8.76$  18.02$  7.31$
  Q  0.6645  8.44$  16.77$  8.09$
  Q  -1.3290  8.8$  17.52$  7.96$
  Q  0.6645  12.61$  5.8$  2.15$
  Q  0.6645  12.5$  4.68$  3.14$
  Q  -1.3290  12.36$  5.45$  2.83$
  Q  0.6645  10.73$  5.65$  19.88$
  Q  0.6645  11.3$  6.86$  19.01$
  Q  -1.3290  11.15$  6.04$  19.25$
  Q  0.6645  17.24$  3.16$  16.93$
  Q  0.6645  16.24$  2.06$  17.05$
  Q  -1.3290  16.6$  2.76$  17.3$
  Q  0.6645  13.08$  14.36$  18.42$
  Q  0.6645  11.71$  14.04$  19.23$
  Q  -1.3290  12.29$  14.04$  18.57$
  Q  0.6645  6.31$  20$  14.22$
  Q  0.6645  7.59$  19.66$  15.15$
  Q  -1.3290  6.88$  19.52$  14.67$
  Q  0.6645  18.12$  18.33$  9.16$
  Q  0.6645  18.78$  17.25$  8.24$
  Q  -1.3290  18.52$  17.6$  8.95$
  Q  0.6645  6.85$  15.97$  2.48$
  Q  0.6645  6.28$  14.82$  3.26$
  Q  -1.3290  6.9$  15.33$  3.01$
  Q  0.6645  13.8$  4.4$  16.68$
  Q  0.6645  15.06$  4.35$  17.37$
  Q  -1.3290  14.53$  4.71$  16.91$
  Q  0.6645  9.28$  4.64$  8.27$
  Q  0.6645  8.93$  5.34$  9.52$
  Q  -1.3290  8.84$  4.75$  8.95$
  Q  0.6645  5.41$  6.02$  10.36$
  Q  0.6645  5.07$  4.88$  11.42$
  Q  -1.3290  5.55$  5.46$  11$
  Q  0.6645  15.56$  0.77$  8.31$
  Q  0.6645  15.29$  1.4$  6.85$
  Q  -1.3290  15.67$  1.29$  7.64$
  Q  0.6645  10.73$  13.19$  3.51$
  Q  0.6645  9.81$  12.04$  4$
  Q  -1.3290  10$  12.87$  3.88$
  Q  0.6645  8.46$  7.66$  19.21$
  Q  0.6645  7.77$  6.52$  19.99$
  Q  -1.3290  8.21$  7.27$  19.91$
  Q  0.6645  3.71$  7.2$  5.81$
  Q  0.6645  3.44$  6.21$  6.93$
  Q  -1.3290  3.54$  6.43$  6.11$
  Q  0.6645  6.58$  15.09$  17.06$
  Q  0.6645  6.63$  13.58$  17.02$
  Q  -1.3290  6.95$  14.34$  17.07$
  Q  0.6645  12.09$  4.78$  9.67$
  Q  0.6645  12.09$  5.83$  8.55$
  Q  -1.3290  12.43$  5.24$  9.03$
  Q  0.6645  15.04$  0.61$  12.37$
  Q  0.6645  16.15$  1.52$  11.85$
  Q  -1.3290  15.83$  0.87$  12.29$
  Q  0.6645  18.77$  7.73$  16.49$
  Q  0.6645  19.93$  6.95$  15.91$
  Q  -1.3290  19.2$  7.04$  16.3$
  Q  0.6645  6.75$  13.8$  19.19$
  Q  0.6645  6.73$  14.89$  20.3$
  Q  -1.3290  6.68$  14.09$  19.98$
  Q  0.6645  13.59$  14.08$  0.77$
  Q  0.6645  13.05$  15.16$  -0.17$
  Q  -1.3290  13.03$  14.42$  0.23$
  Q  0.6645  5.99$  3.33$  7.68$
  Q  0.6645  7.07$  4.18$  8.27$
  Q  -1.3290  6.32$  4.03$  8.01$
*
