! NoMOPrint PrintBasis #MINIPRINT SMALLPRINT LARGEPRINT
! ALLPOP XYZFILE
#! BP86 3-21G   TightSCF
! ENGRAD
! B3LYP NormalPNO PModel #DecontractAux
#! VerySlowConv 
 %maxcore 5000
 %scf  maxiter   500  end 

%pal
    nprocs 32
end

%basis
    NewGTO O    # New basis for oxygen
        "aug-cc-pVTZ"
    end
    NewGTO C    # New basis for carbon
        "aug-cc-pVTZ"
    end
    NewGTO H    # New basis for hydrogen
        "cc-pVTZ"
    end
end

* xyz 0   1
  C  9.66  11.92  11.03  #1
  H  9.99  12.93  11.27  #2
  H  9.68  11.34  11.95  #3
  C  10.48  11.24  10.02  #4
  H  10  10.2  9.93  #5
  H  10.29  11.74  9.05  #6
  C  11.98  11.22  10.47  #7
  H  12.38  12.24  10.51  #8
  H  12.51  10.72  9.71  #9
  C  12.31  10.6  11.82  #10
  H  12  11.26  12.68  #11
  H  13.41  10.61  11.97  #12
  O  11.77  9.26  12.03  #13
  H  12.34  8.84  12.72  #14
  O  8.37  12.11  10.57  #15
  H  8.38  12.85  9.9  #16
  O  10.33  7.81  10.23  #17
  H  10.72  7.81  9.36  #18
  H  10.83  8.47  10.75  #19
  O  13.31  9.35  15.71  #20
  H  12.46  9.85  15.58  #21
  H  13.46  8.62  15.07  #22
  O  8.64  13.98  8.55  #23
  H  8.47  14.69  9.15  #24
  H  7.76  13.97  8.17  #25
  O  10.68  10.74  14.99  #26
  H  9.77  10.34  15.13  #27
  H  10.65  11.57  14.46  #28
  O  9.95  15.4  12.38  #29
  H  9.06  14.98  12.37  #30
  H  10  15.8  13.26  #31
  O  13.29  7.33  13.65  #32
  H  12.48  6.77  13.61  #33
  H  14.07  6.75  13.74  #34
  O  9.27  17.89  11.27  #35
  H  9.7  18.39  11.93  #36
  H  9.42  16.96  11.51  #37
  O  7.31  14.56  12.15  #38
  H  6.96  13.63  12.04  #39
  H  7.16  15.09  11.31  #40
  O  10.45  10.7  17.94  #41
  H  11.1  10.13  18.3  #42
  H  10.48  10.62  16.95  #43
  O  12.6  12.76  16.77  #44
  H  12.17  12.18  17.35  #45
  H  12.23  12.55  15.9  #46
  O  7.66  7.61  10.77  #47
  H  7.56  6.7  11.08  #48
  H  8.58  7.62  10.59  #49
  O  6.75  15.9  10.04  #50
  H  6.73  16.88  10.11  #51
  H  6.22  15.63  9.25  #52
  O  15.64  10.76  14.69  #53
  H  15.98  10.01  14.21  #54
  H  14.79  10.41  15  #55
  O  9.27  15.71  15.06  #56
  H  9.14  16.66  15.19  #57
  H  8.36  15.33  15.07  #58
  O  6.27  11.3  11.89  #59
  H  6.29  11.33  12.85  #60
  H  7.16  11.5  11.58  #61
  O  8.37  9.2  15.73  #62
  H  8.89  8.48  16.13  #63
  H  7.96  8.84  14.93  #64
  O  14.81  7.55  11.07  #65
  H  14.96  6.63  10.87  #66
  H  13.93  7.73  11.35  #67
  O  13.88  13.74  8.26  #68
  H  13.82  12.97  7.73  #69
  H  12.97  14.01  8.32  #70
  O  15.91  12.77  12.54  #71
  H  15.69  12  13.06  #72
  H  15.93  12.54  11.59  #73
  O  14.55  8.98  18.17  #74
  H  14.19  9.06  17.27  #75
  H  15.13  8.19  18.22  #76
  O  12.41  8.45  8.28  #77
  H  12.11  8.91  7.53  #78
  H  13.35  8.7  8.35  #79
  O  7.41  16.14  6.03  #80
  H  8.19  16.6  6.43  #81
  H  7.19  15.36  6.58  #82
  O  10.51  5.15  11.53  #83
  H  9.63  4.7  11.34  #84
  H  10.44  6.08  11.18  #85
  O  15.81  12.12  9.81  #86
  H  15.07  12.59  9.4  #87
  H  15.65  11.13  9.7  #88
  O  6.18  13.82  7.37  #89
  H  5.87  12.91  7.33  #90
  H  5.31  14.25  7.25  #91
  O  11.1  15.06  8.04  #92
  H  10.37  14.46  8.04  #93
  H  11.31  15.39  8.89  #94
  O  11.8  13.44  13.96  #95
  H  11.35  14.08  13.44  #96
  H  12.63  13.91  14.25  #97
  Q  0.6645  7.44$  12.03$  21.95$
  Q  0.6645  7.59$  11.13$  20.68$
  Q  -1.3290  7.17$  11.68$  21.21$
  Q  0.6645  9.56$  2.49$  11.91$
  Q  0.6645  8.22$  3.11$  11.54$
  Q  -1.3290  8.99$  2.8$  11.37$
  Q  0.6645  12.91$  20.12$  4.21$
  Q  0.6645  12.47$  19$  5.17$
  Q  -1.3290  12.4$  19.77$  4.77$
  Q  0.6645  -0.61$  9.66$  8.2$
  Q  0.6645  0.64$  9.17$  7.46$
  Q  -1.3290  0.03$  9.14$  8.03$
  Q  0.6645  10.81$  20.43$  6.02$
  Q  0.6645  10.23$  20.34$  7.56$
  Q  -1.3290  10.29$  20.59$  6.7$
  Q  0.6645  11.18$  1.95$  14.07$
  Q  0.6645  12.62$  2.11$  13.9$
  Q  -1.3290  11.85$  2.38$  13.92$
  Q  0.6645  8.71$  20.16$  5.89$
  Q  0.6645  8.45$  19.38$  4.62$
  Q  -1.3290  8.22$  19.83$  5.28$
  Q  0.6645  15.63$  14.17$  2.04$
  Q  0.6645  16.48$  14.11$  3.25$
  Q  -1.3290  15.76$  14.12$  2.84$
  Q  0.6645  17.46$  13.88$  19.49$
  Q  0.6645  17.09$  13.01$  18.22$
  Q  -1.3290  17.05$  13.29$  19.05$
  Q  0.6645  0.2$  12.81$  9.33$
  Q  0.6645  0.83$  12.65$  10.79$
  Q  -1.3290  0.21$  12.75$  10.2$
  Q  0.6645  13.45$  17.61$  12.97$
  Q  0.6645  12.03$  18.15$  12.52$
  Q  -1.3290  12.65$  17.56$  12.67$
  Q  0.6645  10.17$  6.26$  17.25$
  Q  0.6645  9.63$  6.32$  15.7$
  Q  -1.3290  9.7$  6.55$  16.57$
  Q  0.6645  7.72$  18.18$  12.35$
  Q  0.6645  7.76$  18.64$  13.83$
  Q  -1.3290  7.41$  18.49$  13.08$
  Q  0.6645  6.61$  19.27$  2.3$
  Q  0.6645  7.36$  17.96$  2.67$
  Q  -1.3290  7.27$  18.75$  2.37$
  Q  0.6645  12.06$  15.22$  5.91$
  Q  0.6645  12.35$  14.8$  4.53$
  Q  -1.3290  12.06$  14.7$  5.28$
  Q  0.6645  6.41$  19.35$  6.43$
  Q  0.6645  6.66$  19.29$  7.95$
  Q  -1.3290  6.22$  19.23$  7.23$
  Q  0.6645  16.19$  11.71$  4.23$
  Q  0.6645  15.29$  10.53$  3.59$
  Q  -1.3290  15.64$  11.04$  4.22$
  Q  0.6645  15.77$  7.97$  12.54$
  Q  0.6645  17.06$  8.25$  13.4$
  Q  -1.3290  16.23$  8.29$  13.16$
  Q  0.6645  6.12$  14.3$  16.07$
  Q  0.6645  7.03$  13.64$  17.22$
  Q  -1.3290  6.79$  13.81$  16.4$
  Q  0.6645  19.52$  12.11$  8.38$
  Q  0.6645  19.22$  10.64$  8.16$
  Q  -1.3290  19.68$  11.32$  8.1$
  Q  0.6645  6.64$  9.77$  1.33$
  Q  0.6645  7.66$  8.98$  2.29$
  Q  -1.3290  7.34$  9.68$  1.84$
  Q  0.6645  7.79$  20.87$  12.94$
  Q  0.6645  8.35$  21.79$  14.06$
  Q  -1.3290  7.85$  21.58$  13.39$
  Q  0.6645  10.2$  12.46$  18.36$
  Q  0.6645  10.58$  14.01$  18.3$
  Q  -1.3290  10.27$  13.29$  18.64$
  Q  0.6645  18.64$  13.59$  9.84$
  Q  0.6645  17.45$  12.83$  9.25$
  Q  -1.3290  18.16$  13.28$  9.22$
  Q  0.6645  17.89$  11.3$  17.14$
  Q  0.6645  16.76$  11.59$  16.12$
  Q  -1.3290  17.34$  11.8$  16.71$
  Q  0.6645  16.21$  9.64$  5.79$
  Q  0.6645  15.98$  8.13$  5.91$
  Q  -1.3290  16.3$  8.87$  6.12$
  Q  0.6645  10.11$  4.74$  20.04$
  Q  0.6645  9.05$  5.32$  21.06$
  Q  -1.3290  9.54$  4.76$  20.7$
  Q  0.6645  7.94$  17.44$  17.43$
  Q  0.6645  8.21$  15.87$  17.17$
  Q  -1.3290  7.83$  16.56$  17.5$
  Q  0.6645  14.98$  6$  5.46$
  Q  0.6645  15.52$  6.79$  4.21$
  Q  -1.3290  15.24$  6.7$  5.02$
  Q  0.6645  14.19$  0.97$  12.61$
  Q  0.6645  15.47$  1.88$  12.5$
  Q  -1.3290  14.62$  1.68$  12.47$
  Q  0.6645  20.42$  15.74$  14.87$
  Q  0.6645  19.06$  15.11$  14.88$
  Q  -1.3290  19.69$  15.55$  15.2$
  Q  0.6645  12.39$  1.18$  7.71$
  Q  0.6645  12.14$  1.76$  9.09$
  Q  -1.3290  12.23$  1.14$  8.52$
  Q  0.6645  9.71$  10.59$  4.49$
  Q  0.6645  8.58$  10.79$  3.35$
  Q  -1.3290  8.93$  10.84$  4.14$
  Q  0.6645  12.85$  17.27$  15.72$
  Q  0.6645  11.99$  17.4$  14.52$
  Q  -1.3290  12.31$  17.64$  15.22$
  Q  0.6645  18.34$  17.79$  11.26$
  Q  0.6645  18.24$  18.98$  12.3$
  Q  -1.3290  18.38$  18.63$  11.54$
  Q  0.6645  17.94$  16.06$  7.34$
  Q  0.6645  17.47$  14.59$  7.35$
  Q  -1.3290  17.51$  15.38$  7.05$
  Q  0.6645  15.53$  19.53$  13.37$
  Q  0.6645  14.53$  19.47$  14.33$
  Q  -1.3290  14.85$  19.22$  13.6$
  Q  0.6645  4.44$  16.98$  16.18$
  Q  0.6645  4.85$  18.39$  16.74$
  Q  -1.3290  4.31$  17.77$  16.46$
  Q  0.6645  11.19$  15.26$  16.36$
  Q  0.6645  12.41$  14.57$  16.85$
  Q  -1.3290  11.8$  15.15$  16.89$
  Q  0.6645  14.58$  0.54$  17.22$
  Q  0.6645  14.98$  2.05$  16.79$
  Q  -1.3290  14.49$  1.39$  17.02$
  Q  0.6645  10.82$  4.8$  3.7$
  Q  0.6645  9.48$  4.89$  3.1$
  Q  -1.3290  10.29$  4.9$  3.04$
  Q  0.6645  5.22$  7.05$  9.1$
  Q  0.6645  3.85$  6.92$  8.44$
  Q  -1.3290  4.37$  7.14$  9.06$
  Q  0.6645  7.41$  13.13$  2.24$
  Q  0.6645  8.53$  13.55$  2.85$
  Q  -1.3290  8.13$  13.45$  2.19$
  Q  0.6645  9.78$  1.95$  5.48$
  Q  0.6645  10.42$  1.12$  6.56$
  Q  -1.3290  10.22$  1.85$  6.19$
  Q  0.6645  6.79$  5.27$  7.16$
  Q  0.6645  7.35$  3.78$  7.43$
  Q  -1.3290  6.9$  4.43$  7.03$
  Q  0.6645  4.25$  18.96$  4.93$
  Q  0.6645  4.15$  20.3$  4.16$
  Q  -1.3290  3.89$  19.7$  4.7$
  Q  0.6645  15.62$  15.48$  8.51$
  Q  0.6645  16.52$  15.8$  9.78$
  Q  -1.3290  15.83$  15.9$  9.25$
  Q  0.6645  5.95$  10.56$  9.16$
  Q  0.6645  5.98$  10.34$  7.6$
  Q  -1.3290  5.86$  10.77$  8.35$
  Q  0.6645  12.97$  17.8$  6.72$
  Q  0.6645  13.71$  16.92$  5.73$
  Q  -1.3290  13.08$  17.42$  5.99$
  Q  0.6645  17.09$  6.62$  17.91$
  Q  0.6645  16.03$  6.43$  19.04$
  Q  -1.3290  16.33$  6.69$  18.29$
  Q  0.6645  15.25$  14.5$  19.11$
  Q  0.6645  13.84$  15.03$  19.59$
  Q  -1.3290  14.48$  14.87$  19.02$
  Q  0.6645  12.04$  9.04$  20.08$
  Q  0.6645  12.91$  8.83$  18.92$
  Q  -1.3290  12.21$  8.75$  19.32$
  Q  0.6645  19.68$  5.49$  12.76$
  Q  0.6645  19.88$  5.9$  14.31$
  Q  -1.3290  19.49$  5.47$  13.63$
  Q  0.6645  3.78$  18.31$  11.54$
  Q  0.6645  4.02$  18.66$  10.13$
  Q  -1.3290  3.92$  18.13$  10.74$
  Q  0.6645  5.51$  5.07$  15.37$
  Q  0.6645  5.78$  5.79$  16.65$
  Q  -1.3290  5.3$  5.42$  16.09$
  Q  0.6645  4.19$  12.61$  9.24$
  Q  0.6645  4.07$  14.01$  9.51$
  Q  -1.3290  3.78$  13.3$  9.27$
  Q  0.6645  14.59$  4.23$  10.83$
  Q  0.6645  16.13$  4.32$  10.65$
  Q  -1.3290  15.36$  4.55$  10.94$
  Q  0.6645  10.06$  8.46$  6.02$
  Q  0.6645  10$  6.98$  6.19$
  Q  -1.3290  9.87$  7.67$  5.78$
  Q  0.6645  10.27$  17.51$  5.07$
  Q  0.6645  11.33$  16.72$  4.14$
  Q  -1.3290  10.66$  17.24$  4.34$
  Q  0.6645  7.61$  4.79$  4.87$
  Q  0.6645  7.55$  4.23$  3.51$
  Q  -1.3290  7.74$  4.81$  4.08$
  Q  0.6645  9.52$  12.63$  4.55$
  Q  0.6645  10.29$  13.86$  4.96$
  Q  -1.3290  9.6$  13.42$  4.76$
  Q  0.6645  11.73$  19.69$  15.59$
  Q  0.6645  11.61$  20.55$  16.83$
  Q  -1.3290  11.37$  20.23$  16.12$
  Q  0.6645  3.51$  15.57$  13.91$
  Q  0.6645  2.63$  15.03$  14.96$
  Q  -1.3290  2.78$  15.52$  14.31$
  Q  0.6645  14.31$  4.1$  19.74$
  Q  0.6645  14.26$  3.2$  18.52$
  Q  -1.3290  14.59$  3.77$  19$
  Q  0.6645  14.11$  15.76$  17.21$
  Q  0.6645  15.2$  16.53$  16.59$
  Q  -1.3290  14.4$  16.32$  16.7$
  Q  0.6645  3.07$  10.55$  16.48$
  Q  0.6645  2.6$  8.95$  16.33$
  Q  -1.3290  2.53$  9.84$  16.43$
  Q  0.6645  3.22$  10.27$  9.82$
  Q  0.6645  3.4$  8.98$  9.07$
  Q  -1.3290  3.02$  9.7$  9.25$
  Q  0.6645  8.01$  21.87$  9.85$
  Q  0.6645  8.93$  22.24$  11.01$
  Q  -1.3290  8.61$  21.73$  10.45$
  Q  0.6645  17.18$  21.21$  9.87$
  Q  0.6645  16.99$  19.85$  10.59$
  Q  -1.3290  16.82$  20.64$  10.39$
  Q  0.6645  20.47$  6.38$  11.05$
  Q  0.6645  21.03$  4.99$  10.76$
  Q  -1.3290  20.41$  5.57$  10.92$
  Q  0.6645  13.7$  21.53$  9.1$
  Q  0.6645  15.02$  20.91$  9.7$
  Q  -1.3290  14.2$  20.91$  9.44$
  Q  0.6645  13.96$  4.81$  7.21$
  Q  0.6645  13.71$  4.33$  5.82$
  Q  -1.3290  14.2$  4.62$  6.42$
  Q  0.6645  11.73$  4.51$  14.52$
  Q  0.6645  11.96$  5.59$  15.53$
  Q  -1.3290  11.63$  5.27$  14.85$
  Q  0.6645  7.99$  19.37$  9.5$
  Q  0.6645  6.62$  19.76$  10.06$
  Q  -1.3290  7.17$  19.24$  9.72$
  Q  0.6645  13.98$  11.33$  5.72$
  Q  0.6645  13.18$  12.67$  5.65$
  Q  -1.3290  13.41$  11.92$  5.95$
  Q  0.6645  16.05$  7.4$  1.89$
  Q  0.6645  16.4$  5.96$  2.36$
  Q  -1.3290  15.91$  6.64$  2.28$
  Q  0.6645  11.9$  9.64$  5.41$
  Q  0.6645  11.75$  10.66$  6.59$
  Q  -1.3290  11.5$  10.01$  6.06$
  Q  0.6645  15.1$  18.62$  7.76$
  Q  0.6645  16.07$  17.7$  8.31$
  Q  -1.3290  15.86$  18.38$  7.92$
  Q  0.6645  13.31$  6.26$  9.12$
  Q  0.6645  12.92$  4.83$  9.45$
  Q  -1.3290  13.02$  5.51$  8.95$
  Q  0.6645  7.95$  19.19$  16.02$
  Q  0.6645  9.45$  19.02$  16.02$
  Q  -1.3290  8.69$  18.94$  15.72$
  Q  0.6645  10.11$  14.23$  21.75$
  Q  0.6645  10.57$  13.41$  20.57$
  Q  -1.3290  10.53$  13.61$  21.38$
  Q  0.6645  12.62$  13.01$  21.86$
  Q  0.6645  13.14$  12.06$  20.69$
  Q  -1.3290  13.21$  12.52$  21.39$
  Q  0.6645  14.06$  12.53$  18.54$
  Q  0.6645  14.56$  11.07$  18.62$
  Q  -1.3290  14.05$  11.71$  18.79$
  Q  0.6645  13.71$  20.38$  12.56$
  Q  0.6645  13.33$  20.86$  11.29$
  Q  -1.3290  13.25$  20.87$  12.1$
  Q  0.6645  14.74$  9.75$  1.16$
  Q  0.6645  14.29$  11.25$  1.2$
  Q  -1.3290  14.32$  10.42$  1.45$
  Q  0.6645  5.32$  3.25$  13.62$
  Q  0.6645  3.89$  3.7$  13.33$
  Q  -1.3290  4.7$  3.79$  13.44$
  Q  0.6645  6.86$  7.86$  7.57$
  Q  0.6645  7.01$  7.65$  9.13$
  Q  -1.3290  6.91$  7.42$  8.3$
  Q  0.6645  8.13$  6.2$  13.42$
  Q  0.6645  9.54$  5.67$  13.38$
  Q  -1.3290  8.74$  5.71$  13.65$
  Q  0.6645  12.67$  17.84$  8.95$
  Q  0.6645  13.27$  19.21$  8.92$
  Q  -1.3290  13.08$  18.47$  8.59$
  Q  0.6645  18.84$  8.74$  9.71$
  Q  0.6645  18.63$  8.15$  8.31$
  Q  -1.3290  18.49$  8.69$  8.93$
  Q  0.6645  11.89$  5.39$  18.39$
  Q  0.6645  11.48$  6.57$  19.34$
  Q  -1.3290  11.5$  5.74$  19.07$
  Q  0.6645  8.96$  3.17$  9.48$
  Q  0.6645  9.47$  2.87$  8.03$
  Q  -1.3290  9.05$  3.3$  8.64$
  Q  0.6645  6.82$  12.92$  19.69$
  Q  0.6645  8.13$  13.33$  19.1$
  Q  -1.3290  7.31$  13.23$  19.11$
  Q  0.6645  5.77$  17.33$  7.67$
  Q  0.6645  4.3$  16.51$  7.78$
  Q  -1.3290  5.17$  16.65$  7.72$
  Q  0.6645  12.82$  9.51$  0.53$
  Q  0.6645  11.38$  10.01$  0.44$
  Q  -1.3290  12.04$  9.5$  0.24$
  Q  0.6645  4.35$  20.72$  10.96$
  Q  0.6645  4.64$  20.56$  9.5$
  Q  -1.3290  4.85$  20.79$  10.3$
  Q  0.6645  14.64$  14.06$  13.46$
  Q  0.6645  15.09$  14.82$  14.76$
  Q  -1.3290  14.55$  14.41$  14.23$
  Q  0.6645  5.93$  15.5$  13.58$
  Q  0.6645  6$  17$  13.67$
  Q  -1.3290  5.66$  16.26$  13.76$
  Q  0.6645  5.2$  12.63$  2.84$
  Q  0.6645  4.28$  13.04$  1.74$
  Q  -1.3290  5.02$  12.97$  2.1$
  Q  0.6645  3.9$  16.16$  10.73$
  Q  0.6645  4.8$  15.27$  11.62$
  Q  -1.3290  4.13$  15.43$  11.14$
  Q  0.6645  19.93$  9.51$  11.18$
  Q  0.6645  21.09$  8.54$  11.35$
  Q  -1.3290  20.26$  8.76$  11.28$
  Q  0.6645  4.15$  6.36$  13.35$
  Q  0.6645  4.05$  6.59$  14.93$
  Q  -1.3290  4.08$  6.83$  14.09$
  Q  0.6645  7.02$  8.06$  12.63$
  Q  0.6645  5.98$  7.7$  13.84$
  Q  -1.3290  6.74$  7.73$  13.41$
  Q  0.6645  2.07$  13.6$  12.95$
  Q  0.6645  2.79$  13.94$  11.61$
  Q  -1.3290  2.31$  13.52$  12.13$
  Q  0.6645  4.56$  11.18$  11.42$
  Q  0.6645  3.43$  12.05$  11.32$
  Q  -1.3290  3.81$  11.36$  11.18$
  Q  0.6645  6.7$  4.72$  10.53$
  Q  0.6645  6.19$  4.65$  12.03$
  Q  -1.3290  6.7$  4.84$  11.37$
  Q  0.6645  15.67$  4.09$  16.93$
  Q  0.6645  16.03$  4.09$  15.4$
  Q  -1.3290  15.99$  3.79$  16.19$
  Q  0.6645  12.51$  10.17$  3.05$
  Q  0.6645  11.23$  10.58$  2.33$
  Q  -1.3290  11.78$  10.55$  2.98$
  Q  0.6645  3.52$  10.85$  3.91$
  Q  0.6645  4.83$  11.09$  4.6$
  Q  -1.3290  4.23$  10.61$  4.27$
  Q  0.6645  11.01$  15.93$  1.27$
  Q  0.6645  12.14$  14.94$  1.87$
  Q  -1.3290  11.76$  15.7$  1.64$
  Q  0.6645  16.05$  16.8$  13.87$
  Q  0.6645  17.28$  17.48$  14.11$
  Q  -1.3290  16.87$  16.86$  13.83$
  Q  0.6645  10.23$  -0.05$  15.32$
  Q  0.6645  9.69$  1.36$  15.44$
  Q  -1.3290  9.97$  0.69$  15.01$
  Q  0.6645  8.89$  7.75$  3.84$
  Q  0.6645  7.96$  6.65$  3.58$
  Q  -1.3290  8.37$  7.36$  3.34$
  Q  0.6645  13.62$  15.95$  9.79$
  Q  0.6645  12.7$  16.3$  10.9$
  Q  -1.3290  12.88$  16.07$  10.12$
  Q  0.6645  12.46$  12.55$  2.68$
  Q  0.6645  13.67$  13.46$  2.9$
  Q  -1.3290  12.91$  13.25$  2.57$
  Q  0.6645  12.35$  1.97$  16.93$
  Q  0.6645  11.13$  2.22$  18.03$
  Q  -1.3290  11.59$  2.31$  17.3$
  Q  0.6645  4.92$  15.53$  17.62$
  Q  0.6645  3.59$  14.87$  16.99$
  Q  -1.3290  4.43$  15.04$  17.06$
  Q  0.6645  19.55$  6.54$  16.59$
  Q  0.6645  20.69$  7.51$  16.21$
  Q  -1.3290  20.05$  7.02$  16.03$
  Q  0.6645  19.14$  6.53$  18.78$
  Q  0.6645  18.72$  5.18$  18.12$
  Q  -1.3290  18.85$  6.01$  18.18$
  Q  0.6645  2.12$  13.08$  8.41$
  Q  0.6645  1.24$  12.91$  7.13$
  Q  -1.3290  1.41$  13.15$  7.94$
  Q  0.6645  0.3$  11.91$  14.44$
  Q  0.6645  1.68$  11.33$  14.46$
  Q  -1.3290  1.08$  11.89$  14.63$
  Q  0.6645  6.14$  16.25$  2.44$
  Q  0.6645  5.07$  15.11$  2.5$
  Q  -1.3290  5.35$  15.91$  2.48$
  Q  0.6645  11.29$  5.62$  8.05$
  Q  0.6645  9.88$  4.84$  8.25$
  Q  -1.3290  10.47$  5.37$  7.86$
  Q  0.6645  7.05$  1.47$  13.81$
  Q  0.6645  7.6$  2.54$  14.97$
  Q  -1.3290  7.01$  2.13$  14.47$
  Q  0.6645  19.52$  8.59$  12.89$
  Q  0.6645  19.44$  8.09$  14.28$
  Q  -1.3290  19.19$  8.53$  13.66$
  Q  0.6645  8.84$  10.67$  0.98$
  Q  0.6645  9.72$  11.92$  0.66$
  Q  -1.3290  9.56$  11.1$  0.84$
  Q  0.6645  17.43$  15.62$  17.85$
  Q  0.6645  17.96$  15.87$  16.4$
  Q  -1.3290  17.39$  15.9$  17.05$
  Q  0.6645  3.15$  9.04$  13.82$
  Q  0.6645  3.33$  10.14$  12.86$
  Q  -1.3290  2.91$  9.71$  13.4$
  Q  0.6645  19.69$  10.86$  14.47$
  Q  0.6645  19.65$  12.37$  14.26$
  Q  -1.3290  19.99$  11.6$  14.25$
  Q  0.6645  11.35$  4.8$  6.03$
  Q  0.6645  11.35$  3.5$  5.54$
  Q  -1.3290  11.6$  4.26$  5.5$
  Q  0.6645  19.91$  15.39$  8.53$
  Q  0.6645  20.13$  16.89$  8.86$
  Q  -1.3290  19.9$  16.22$  8.38$
  Q  0.6645  15.18$  8.61$  9.45$
  Q  0.6645  15.73$  8.97$  8.03$
  Q  -1.3290  15.25$  9.07$  8.75$
  Q  0.6645  3.45$  5.46$  5.81$
  Q  0.6645  2.29$  6.26$  6.34$
  Q  -1.3290  3.07$  5.97$  6.38$
  Q  0.6645  1.11$  8.74$  10.36$
  Q  0.6645  1.62$  8.99$  11.8$
  Q  -1.3290  1.23$  8.57$  11.16$
  Q  0.6645  16.64$  4.87$  6.63$
  Q  0.6645  17.82$  4.84$  7.66$
  Q  -1.3290  17.46$  4.72$  6.91$
  Q  0.6645  0.74$  17.22$  9.66$
  Q  0.6645  -0.12$  18.18$  10.5$
  Q  -1.3290  0.15$  17.43$  10.22$
  Q  0.6645  7.14$  10.79$  15.42$
  Q  0.6645  6.75$  12.17$  15.28$
  Q  -1.3290  6.87$  11.41$  14.98$
  Q  0.6645  6.04$  8.52$  5.71$
  Q  0.6645  7.41$  9.19$  5.76$
  Q  -1.3290  6.64$  9.01$  6.02$
  Q  0.6645  4.5$  11.92$  17.86$
  Q  0.6645  4.23$  12.99$  16.83$
  Q  -1.3290  4.18$  12.19$  17.13$
  Q  0.6645  1.55$  15.3$  8$
  Q  0.6645  1.76$  16.8$  7.37$
  Q  -1.3290  1.78$  16.14$  7.98$
  Q  0.6645  9.87$  18.88$  9.84$
  Q  0.6645  9.54$  20.4$  9.55$
  Q  -1.3290  9.81$  19.6$  9.36$
  Q  0.6645  2.67$  20.24$  8$
  Q  0.6645  4.08$  19.83$  7.57$
  Q  -1.3290  3.45$  20.01$  8.12$
  Q  0.6645  1.49$  16.43$  13.29$
  Q  0.6645  0.62$  16.78$  12.19$
  Q  -1.3290  0.82$  16.8$  12.99$
  Q  0.6645  9.81$  3.57$  16.3$
  Q  0.6645  8.84$  4.18$  15.24$
  Q  -1.3290  9.07$  3.63$  15.84$
  Q  0.6645  21.03$  15.52$  10.82$
  Q  0.6645  20.88$  14.06$  10.88$
  Q  -1.3290  20.62$  14.82$  11.05$
  Q  0.6645  11.25$  6.94$  2.81$
  Q  0.6645  11.72$  7.62$  1.5$
  Q  -1.3290  11.76$  7.38$  2.32$
  Q  0.6645  5.78$  13.17$  5.07$
  Q  0.6645  6.87$  12.15$  4.68$
  Q  -1.3290  6.1$  12.46$  4.74$
  Q  0.6645  9.95$  18.09$  7.65$
  Q  0.6645  10.14$  16.64$  7.21$
  Q  -1.3290  9.81$  17.4$  7.17$
  Q  0.6645  8.68$  16.19$  0.06$
  Q  0.6645  8.72$  15.27$  1.34$
  Q  -1.3290  9.04$  15.78$  0.71$
  Q  0.6645  17.84$  9.35$  5.32$
  Q  0.6645  18.62$  10.71$  4.92$
  Q  -1.3290  18.4$  9.86$  4.91$
  Q  0.6645  13.94$  6.14$  17.16$
  Q  0.6645  12.69$  6.96$  17.32$
  Q  -1.3290  13.1$  6.32$  17.07$
  Q  0.6645  12.61$  4.19$  21.72$
  Q  0.6645  12.38$  4.57$  20.33$
  Q  -1.3290  12.87$  4.42$  20.97$
  Q  0.6645  12.25$  17.1$  17.85$
  Q  0.6645  11.81$  17.09$  19.37$
  Q  -1.3290  12$  17.46$  18.58$
  Q  0.6645  7.11$  6.2$  18.03$
  Q  0.6645  7.51$  7.47$  17.48$
  Q  -1.3290  6.93$  6.96$  17.77$
  Q  0.6645  14.3$  5.38$  2.25$
  Q  0.6645  12.7$  5.36$  2.5$
  Q  -1.3290  13.51$  5.02$  2.38$
  Q  0.6645  5.62$  8.67$  20.64$
  Q  0.6645  6.48$  8.01$  19.61$
  Q  -1.3290  6.25$  8.2$  20.39$
  Q  0.6645  11.45$  20.12$  12.81$
  Q  0.6645  10.71$  19.49$  13.89$
  Q  -1.3290  10.87$  19.61$  13.11$
  Q  0.6645  13.21$  3.08$  11.52$
  Q  0.6645  12.15$  4.18$  11.41$
  Q  -1.3290  12.76$  3.7$  11.13$
  Q  0.6645  4.08$  7.38$  5.11$
  Q  0.6645  4.39$  8.61$  4.12$
  Q  -1.3290  4.53$  7.86$  4.55$
  Q  0.6645  12.71$  8.23$  3.76$
  Q  0.6645  13.88$  8.13$  4.71$
  Q  -1.3290  13.25$  8.53$  4.32$
  Q  0.6645  19.69$  11.27$  12.47$
  Q  0.6645  20.46$  11.59$  11.12$
  Q  -1.3290  19.79$  11.3$  11.64$
  Q  0.6645  15.89$  15.75$  5.71$
  Q  0.6645  15.19$  15.26$  4.47$
  Q  -1.3290  15.28$  15.75$  5.15$
  Q  0.6645  20.39$  6.22$  6.73$
  Q  0.6645  20.76$  7.67$  7.41$
  Q  -1.3290  20.24$  7$  7.11$
  Q  0.6645  2.38$  10.49$  7.4$
  Q  0.6645  2.73$  10.6$  5.94$
  Q  -1.3290  2.22$  10.52$  6.57$
  Q  0.6645  18.3$  2.19$  13.16$
  Q  0.6645  17.28$  3.23$  13.26$
  Q  -1.3290  17.53$  2.46$  13.08$
  Q  0.6645  17.74$  16.27$  12.06$
  Q  0.6645  18.73$  15.44$  11.34$
  Q  -1.3290  18.09$  15.96$  11.37$
  Q  0.6645  7.94$  16.16$  4.36$
  Q  0.6645  8.92$  16.63$  3.27$
  Q  -1.3290  8.17$  16.38$  3.58$
  Q  0.6645  18.71$  4.13$  10.14$
  Q  0.6645  17.98$  3$  9.34$
  Q  -1.3290  18.07$  3.75$  9.74$
  Q  0.6645  4.97$  17.11$  3.96$
  Q  0.6645  5.48$  16.96$  5.42$
  Q  -1.3290  4.92$  17.13$  4.81$
  Q  0.6645  17.58$  13.32$  13.74$
  Q  0.6645  17.49$  13.48$  15.21$
  Q  -1.3290  17.81$  13.65$  14.45$
  Q  0.6645  8.26$  9.08$  20.17$
  Q  0.6645  9.06$  9.95$  19.18$
  Q  -1.3290  8.69$  9.75$  19.92$
  Q  0.6645  16.03$  4.89$  12.84$
  Q  0.6645  16.99$  5.48$  13.96$
  Q  -1.3290  16.32$  5.05$  13.64$
  Q  0.6645  18.09$  12.17$  3.3$
  Q  0.6645  18.5$  13.23$  4.35$
  Q  -1.3290  18.13$  12.53$  4.05$
  Q  0.6645  3.29$  6.59$  10.54$
  Q  0.6645  2.19$  7.03$  11.35$
  Q  -1.3290  2.75$  6.47$  11.12$
  Q  0.6645  3.24$  14.41$  5.07$
  Q  0.6645  4.21$  15.49$  5.37$
  Q  -1.3290  3.94$  14.7$  5.4$
  Q  0.6645  18.78$  9.54$  18.68$
  Q  0.6645  19.67$  9.68$  17.56$
  Q  -1.3290  19.09$  9.95$  18.05$
*
