! NoMOPrint PrintBasis #MINIPRINT SMALLPRINT LARGEPRINT
! ALLPOP XYZFILE
#! BP86 3-21G   TightSCF
! ENGRAD
! B3LYP NormalPNO PModel #DecontractAux
#! VerySlowConv 
 %maxcore 5000
 %scf  maxiter   500  end 

%pal
    nprocs 32
end

%basis
    NewGTO O    # New basis for oxygen
        "aug-cc-pVTZ"
    end
    NewGTO C    # New basis for carbon
        "aug-cc-pVTZ"
    end
    NewGTO H    # New basis for hydrogen
        "cc-pVTZ"
    end
end

* xyz 0   1
  C  9.19  11.79  11.56  #1
  H  8.76  10.82  11.78  #2
  H  8.51  12.45  11.04  #3
  C  10.47  11.53  10.7  #4
  H  10.33  12.05  9.68  #5
  H  11.24  11.94  11.3  #6
  C  10.84  10.05  10.4  #7
  H  10.03  9.51  9.94  #8
  H  10.98  9.56  11.39  #9
  C  12.16  9.96  9.52  #10
  H  12.31  10.86  8.86  #11
  H  11.98  9.15  8.78  #12
  O  13.32  9.76  10.34  #13
  H  13.34  8.89  10.78  #14
  O  9.56  12.52  12.8  #15
  H  8.76  12.96  13.07  #16
  O  10.66  15.8  13.64  #17
  H  9.96  15.58  13.03  #18
  H  11.34  15.12  13.72  #19
  O  13.85  12.1  11.68  #20
  H  14.06  12.69  10.99  #21
  H  13.65  11.22  11.24  #22
  O  6.86  14.21  12.49  #23
  H  6.23  13.49  12.46  #24
  H  6.48  14.83  13.12  #25
  O  12.02  13.3  13.54  #26
  H  12.63  13.36  12.8  #27
  H  11.14  13.06  13.15  #28
  O  9.59  7.39  6.88  #29
  H  9.1  7.82  6.12  #30
  H  10.19  8.11  7.13  #31
  O  5.84  16.16  10.72  #32
  H  6.07  15.24  10.9  #33
  H  6.02  16.56  11.55  #34
  O  12.92  6.79  10.33  #35
  H  11.99  6.93  10.18  #36
  H  13.04  6.37  11.2  #37
  O  12.9  16.77  11.49  #38
  H  12.08  16.32  11.79  #39
  H  12.55  17.72  11.49  #40
  O  15.91  9.49  12.36  #41
  H  15.89  10.41  12.23  #42
  H  15.22  9.36  13.03  #43
  O  11.15  5.53  5.3  #44
  H  10.75  4.7  4.93  #45
  H  10.55  6.03  5.81  #46
  O  12.81  14.78  16.07  #47
  H  13.53  14.4  16.5  #48
  H  12.49  14.18  15.38  #49
  O  12.48  7.5  7.21  #50
  H  13.33  7.52  7.6  #51
  H  12.24  6.61  6.94  #52
  O  9.41  13.77  7.11  #53
  H  9.8  14.19  7.87  #54
  H  10.06  13.32  6.56  #55
  O  6.84  13.67  9.48  #56
  H  6.39  12.93  9.84  #57
  H  6.43  13.87  8.62  #58
  O  7.58  8.84  5.3  #59
  H  7.66  9.76  5.61  #60
  H  6.94  8.4  5.84  #61
  O  6.42  9.2  12.68  #62
  H  7.07  8.76  13.23  #63
  H  6.68  8.93  11.79  #64
  O  14.99  11.85  14.18  #65
  H  14.73  12.5  14.92  #66
  H  14.44  11.88  13.43  #67
  O  8.98  15.91  11.35  #68
  H  8.37  15.16  11.18  #69
  H  8.53  16.71  11.14  #70
  O  15.52  9.64  8.4  #71
  H  14.89  9.6  9.09  #72
  H  15.36  10.42  7.82  #73
  O  6.03  12.28  15  #74
  H  6.54  13.07  14.85  #75
  H  5.13  12.64  15.09  #76
  O  9.87  7.96  3.74  #77
  H  9.38  8.71  4.03  #78
  H  10.77  8.1  3.98  #79
  O  9.39  17.3  15.86  #80
  H  9.86  16.73  15.17  #81
  H  9.57  17.1  16.78  #82
  O  5.37  11.9  11.33  #83
  H  4.47  11.69  11.12  #84
  H  5.77  11.06  11.5  #85
  O  12.14  10.29  14.15  #86
  H  12.05  11.16  13.67  #87
  H  11.69  10.39  15.04  #88
  O  5.54  16.88  13.89  #89
  H  4.69  16.84  14.37  #90
  H  6.07  17.52  14.32  #91
  Q  0.6645  19.15$  13.55$  12.61$
  Q  0.6645  20.29$  14.31$  12.01$
  Q  -1.3290  19.85$  13.63$  12.18$
  Q  0.6645  4.59$  5.16$  4.42$
  Q  0.6645  4.2$  5.5$  5.81$
  Q  -1.3290  4.6$  5.05$  5.28$
  Q  0.6645  8.81$  6.48$  3.01$
  Q  0.6645  8.98$  5.36$  1.89$
  Q  -1.3290  8.57$  5.88$  2.47$
  Q  0.6645  6.03$  11.07$  7.11$
  Q  0.6645  5.59$  10.02$  8.29$
  Q  -1.3290  5.49$  10.58$  7.6$
  Q  0.6645  0.61$  8.24$  9.67$
  Q  0.6645  0.58$  9.74$  10.03$
  Q  -1.3290  0.87$  9.03$  9.67$
  Q  0.6645  10.33$  5.27$  14.65$
  Q  0.6645  9.9$  4.48$  15.94$
  Q  -1.3290  10.41$  4.95$  15.44$
  Q  0.6645  7.68$  0.87$  9.88$
  Q  0.6645  7.33$  -0.5$  9.11$
  Q  -1.3290  7.83$  0.13$  9.47$
  Q  0.6645  11.45$  18.92$  16.9$
  Q  0.6645  11.15$  20.31$  17.37$
  Q  -1.3290  11.25$  19.74$  16.77$
  Q  0.6645  15.97$  19.39$  6.12$
  Q  0.6645  14.89$  19.31$  7.21$
  Q  -1.3290  15.19$  19.38$  6.39$
  Q  0.6645  13.77$  10.63$  0.91$
  Q  0.6645  13.3$  9.54$  1.82$
  Q  -1.3290  13.69$  9.83$  1.14$
  Q  0.6645  18.13$  13.73$  14.78$
  Q  0.6645  16.78$  13.37$  14.06$
  Q  -1.3290  17.58$  13.61$  14.1$
  Q  0.6645  16.23$  9.86$  19.76$
  Q  0.6645  15.56$  9.94$  18.42$
  Q  -1.3290  15.89$  10.26$  19.1$
  Q  0.6645  10.08$  1.87$  4.88$
  Q  0.6645  9.16$  3.04$  4.71$
  Q  -1.3290  9.88$  2.69$  4.88$
  Q  0.6645  11.17$  19.25$  20.64$
  Q  0.6645  10.32$  18.05$  20.21$
  Q  -1.3290  11.04$  18.43$  20.44$
  Q  0.6645  14.61$  2.14$  9.65$
  Q  0.6645  16.01$  2.09$  10.4$
  Q  -1.3290  15.17$  2.29$  10.28$
  Q  0.6645  6.28$  7.7$  9.7$
  Q  0.6645  4.93$  8.36$  9.47$
  Q  -1.3290  5.74$  8.34$  9.64$
  Q  0.6645  14.01$  18.45$  8.77$
  Q  0.6645  14.66$  19.52$  9.69$
  Q  -1.3290  14.61$  18.97$  9.05$
  Q  0.6645  2.11$  16.11$  10.89$
  Q  0.6645  0.77$  15.31$  10.44$
  Q  -1.3290  1.47$  15.49$  10.91$
  Q  0.6645  7.3$  11.7$  20.59$
  Q  0.6645  8.42$  11.52$  19.69$
  Q  -1.3290  8.1$  11.82$  20.36$
  Q  0.6645  16.79$  16.72$  10.55$
  Q  0.6645  16.01$  17.48$  9.61$
  Q  -1.3290  16.49$  16.85$  9.82$
  Q  0.6645  10.24$  10$  17.93$
  Q  0.6645  10.7$  9$  18.97$
  Q  -1.3290  10.23$  9.25$  18.32$
  Q  0.6645  15.69$  4.8$  17.82$
  Q  0.6645  15.21$  5.82$  18.73$
  Q  -1.3290  15.22$  5.08$  18.42$
  Q  0.6645  2.87$  11.45$  15.01$
  Q  0.6645  3.31$  12.5$  14.02$
  Q  -1.3290  3.13$  12.19$  14.8$
  Q  0.6645  12.03$  18.23$  5.23$
  Q  0.6645  13.49$  18.59$  5.02$
  Q  -1.3290  12.64$  18.59$  4.85$
  Q  0.6645  7.73$  21.01$  14.82$
  Q  0.6645  6.87$  22.15$  14.07$
  Q  -1.3290  7.38$  21.77$  14.68$
  Q  0.6645  15.64$  1.38$  7.51$
  Q  0.6645  15.68$  1.47$  6.04$
  Q  -1.3290  15.79$  1.74$  6.8$
  Q  0.6645  16.76$  10.06$  16.2$
  Q  0.6645  15.76$  10.59$  15.27$
  Q  -1.3290  15.97$  10.24$  15.99$
  Q  0.6645  18.61$  3.45$  6.64$
  Q  0.6645  18.12$  2.09$  6.1$
  Q  -1.3290  18.7$  2.71$  6.27$
  Q  0.6645  16.82$  9.08$  7.42$
  Q  0.6645  17.53$  9.39$  6.12$
  Q  -1.3290  17.27$  8.9$  6.75$
  Q  0.6645  5.93$  10.35$  15.58$
  Q  0.6645  5.51$  9.48$  16.7$
  Q  -1.3290  5.79$  9.64$  15.91$
  Q  0.6645  17.6$  10.37$  4.13$
  Q  0.6645  18.27$  11.37$  5.16$
  Q  -1.3290  17.7$  10.8$  4.88$
  Q  0.6645  13.18$  7.97$  17.04$
  Q  0.6645  12.98$  7.11$  18.31$
  Q  -1.3290  13.36$  7.7$  17.81$
  Q  0.6645  8.54$  18.7$  12.71$
  Q  0.6645  8.79$  18.78$  11.13$
  Q  -1.3290  8.35$  18.67$  11.85$
  Q  0.6645  14.5$  -0.06$  9.51$
  Q  0.6645  14.08$  0$  7.96$
  Q  -1.3290  14.53$  0.19$  8.7$
  Q  0.6645  1.63$  12.8$  12.99$
  Q  0.6645  1.97$  14.01$  12.04$
  Q  -1.3290  2.12$  13.26$  12.46$
  Q  0.6645  3.88$  6.44$  13.37$
  Q  0.6645  4.29$  7.43$  12.31$
  Q  -1.3290  4.28$  6.7$  12.67$
  Q  0.6645  4.64$  1.88$  6.67$
  Q  0.6645  5.08$  3.09$  6.07$
  Q  -1.3290  5.21$  2.32$  6.31$
  Q  0.6645  9.97$  9.4$  1.66$
  Q  0.6645  10.35$  8.85$  0.24$
  Q  -1.3290  9.86$  8.97$  0.94$
  Q  0.6645  15.98$  7.44$  6.16$
  Q  0.6645  15.29$  5.97$  6.52$
  Q  -1.3290  15.46$  6.75$  6.07$
  Q  0.6645  5.82$  -0.42$  12.3$
  Q  0.6645  6.17$  0.96$  11.74$
  Q  -1.3290  5.98$  0.41$  12.34$
  Q  0.6645  18.11$  11.59$  8.59$
  Q  0.6645  16.99$  12.3$  7.9$
  Q  -1.3290  17.76$  12.19$  8.16$
  Q  0.6645  9.24$  4.09$  12.54$
  Q  0.6645  7.88$  4.76$  12.69$
  Q  -1.3290  8.55$  4.47$  12.28$
  Q  0.6645  8.26$  9$  18.93$
  Q  0.6645  6.81$  8.73$  19.18$
  Q  -1.3290  7.63$  8.53$  19.15$
  Q  0.6645  3.15$  15.22$  7.17$
  Q  0.6645  2.39$  13.99$  6.51$
  Q  -1.3290  2.49$  14.69$  7$
  Q  0.6645  5.62$  2.94$  16.03$
  Q  0.6645  4.41$  3.68$  15.46$
  Q  -1.3290  5.13$  3.63$  15.88$
  Q  0.6645  14.27$  14.76$  6.65$
  Q  0.6645  13.47$  14.16$  7.76$
  Q  -1.3290  13.58$  14.38$  6.97$
  Q  0.6645  13.64$  15.58$  9.79$
  Q  0.6645  15.1$  15.39$  9.54$
  Q  -1.3290  14.31$  15.14$  9.55$
  Q  0.6645  16.75$  15.24$  16.03$
  Q  0.6645  15.5$  15.66$  15.17$
  Q  -1.3290  15.91$  15.41$  15.88$
  Q  0.6645  8.84$  16.75$  2.18$
  Q  0.6645  7.87$  17.39$  3.23$
  Q  -1.3290  8.07$  16.92$  2.52$
  Q  0.6645  20.58$  12.33$  4.94$
  Q  0.6645  20.24$  11.07$  4.25$
  Q  -1.3290  20.11$  11.68$  4.76$
  Q  0.6645  9.98$  3.23$  6.6$
  Q  0.6645  10.7$  3.95$  7.8$
  Q  -1.3290  10.15$  3.47$  7.42$
  Q  0.6645  12.4$  16.7$  7.31$
  Q  0.6645  12.12$  17.88$  8.36$
  Q  -1.3290  12.49$  17.13$  8.09$
  Q  0.6645  12.04$  21.44$  13.83$
  Q  0.6645  11.79$  20.32$  14.77$
  Q  -1.3290  11.96$  20.64$  14.05$
  Q  0.6645  2.76$  18.29$  13.41$
  Q  0.6645  2.92$  17.84$  11.99$
  Q  -1.3290  3.02$  18.33$  12.62$
  Q  0.6645  8.28$  3.78$  7.81$
  Q  0.6645  6.8$  3.21$  7.25$
  Q  -1.3290  7.38$  3.67$  7.71$
  Q  0.6645  13.17$  9.22$  18.48$
  Q  0.6645  13.76$  10.42$  19.03$
  Q  -1.3290  13.13$  10.01$  18.76$
  Q  0.6645  8.43$  10.98$  17.14$
  Q  0.6645  6.99$  11.23$  17.49$
  Q  -1.3290  7.79$  11.03$  17.66$
  Q  0.6645  1.02$  12.65$  5.07$
  Q  0.6645  1.95$  11.85$  6.01$
  Q  -1.3290  1.74$  12.41$  5.41$
  Q  0.6645  21.01$  12.62$  13.42$
  Q  0.6645  21.6$  11.71$  14.63$
  Q  -1.3290  21.56$  12.39$  14.07$
  Q  0.6645  10.88$  7.99$  16.81$
  Q  0.6645  11.06$  6.68$  16.03$
  Q  -1.3290  11.26$  7.46$  16.26$
  Q  0.6645  7.9$  16.34$  5.39$
  Q  0.6645  8.6$  15.42$  6.37$
  Q  -1.3290  8.3$  16.15$  6.11$
  Q  0.6645  11.36$  7.24$  1.57$
  Q  0.6645  12.45$  8.02$  0.67$
  Q  -1.3290  12.14$  7.45$  1.23$
  Q  0.6645  18.09$  13.29$  17.34$
  Q  0.6645  18.63$  14.65$  16.77$
  Q  -1.3290  18.18$  13.95$  16.77$
  Q  0.6645  4$  16.78$  9.94$
  Q  0.6645  2.84$  17.59$  9.14$
  Q  -1.3290  3.2$  17.1$  9.79$
  Q  0.6645  10.27$  13.39$  0.48$
  Q  0.6645  9.63$  12.07$  0.04$
  Q  -1.3290  10.16$  12.56$  0.51$
  Q  0.6645  2.37$  5.25$  14.53$
  Q  0.6645  2.43$  6.37$  15.45$
  Q  -1.3290  2.65$  5.96$  14.77$
  Q  0.6645  10.5$  1.73$  8.09$
  Q  0.6645  9.92$  0.63$  9.1$
  Q  -1.3290  10.51$  1$  8.57$
  Q  0.6645  6$  15.46$  6.73$
  Q  0.6645  5.59$  14.07$  6.39$
  Q  -1.3290  5.71$  14.71$  6.89$
  Q  0.6645  14.42$  13$  18.98$
  Q  0.6645  15.28$  13.66$  20.08$
  Q  -1.3290  14.58$  13.46$  19.67$
  Q  0.6645  2.13$  16.1$  15.32$
  Q  0.6645  1.92$  17.56$  15.53$
  Q  -1.3290  2.28$  16.92$  15.17$
  Q  0.6645  6.37$  17.15$  9.29$
  Q  0.6645  6.99$  17.38$  7.86$
  Q  -1.3290  6.45$  17.54$  8.51$
  Q  0.6645  6.38$  19.24$  12.02$
  Q  0.6645  4.93$  19.36$  12.53$
  Q  -1.3290  5.6$  19.6$  12.09$
  Q  0.6645  17.95$  15.6$  12.13$
  Q  0.6645  18.59$  16.93$  12.13$
  Q  -1.3290  17.95$  16.43$  12.24$
  Q  0.6645  19.58$  6.99$  4.73$
  Q  0.6645  18.86$  7.67$  3.54$
  Q  -1.3290  19.45$  7.19$  3.91$
  Q  0.6645  14.54$  0.56$  4.11$
  Q  0.6645  14.21$  2.13$  4.02$
  Q  -1.3290  14.28$  1.34$  4.34$
  Q  0.6645  11.38$  15.65$  8.98$
  Q  0.6645  10.3$  15.43$  10.16$
  Q  -1.3290  10.71$  15.3$  9.39$
  Q  0.6645  13.56$  18.61$  17.95$
  Q  0.6645  13.67$  20.16$  17.84$
  Q  -1.3290  13.97$  19.37$  18$
  Q  0.6645  1.52$  6.46$  13.04$
  Q  0.6645  1.01$  5.75$  11.8$
  Q  -1.3290  1.15$  6.42$  12.28$
  Q  0.6645  10.08$  15.08$  20.55$
  Q  0.6645  11.48$  15.26$  21.02$
  Q  -1.3290  10.68$  15.09$  21.13$
  Q  0.6645  18.96$  13.63$  7.8$
  Q  0.6645  18.92$  15$  7.07$
  Q  -1.3290  19.24$  14.41$  7.6$
  Q  0.6645  6.77$  8.51$  3.61$
  Q  0.6645  6.38$  8.83$  2.14$
  Q  -1.3290  6.34$  8.41$  2.91$
  Q  0.6645  17.69$  17.22$  15.22$
  Q  0.6645  17.98$  16.04$  14.34$
  Q  -1.3290  18.11$  16.54$  15.01$
  Q  0.6645  20.55$  2.73$  8.98$
  Q  0.6645  19.9$  2.93$  10.22$
  Q  -1.3290  20.2$  3.2$  9.51$
  Q  0.6645  10.71$  2.49$  13.06$
  Q  0.6645  11.13$  3.22$  11.8$
  Q  -1.3290  10.88$  3.17$  12.6$
  Q  0.6645  15.07$  3.73$  7.24$
  Q  0.6645  13.99$  4.64$  7.67$
  Q  -1.3290  14.75$  4.48$  7.45$
  Q  0.6645  17.93$  9.04$  2.02$
  Q  0.6645  16.68$  8.32$  2.46$
  Q  -1.3290  17.43$  8.67$  2.57$
  Q  0.6645  15.72$  15.83$  1.94$
  Q  0.6645  15.4$  14.38$  2.32$
  Q  -1.3290  15.65$  15.17$  2.45$
  Q  0.6645  20.29$  6.41$  10.88$
  Q  0.6645  18.9$  6.72$  11.38$
  Q  -1.3290  19.63$  6.38$  11.46$
  Q  0.6645  14.45$  6.8$  2.32$
  Q  0.6645  15.75$  6.37$  2.62$
  Q  -1.3290  15.24$  6.84$  2.22$
  Q  0.6645  10.3$  11.44$  1.87$
  Q  0.6645  11.2$  10.84$  3.07$
  Q  -1.3290  10.48$  10.94$  2.6$
  Q  0.6645  6.85$  14.98$  21.58$
  Q  0.6645  7.56$  13.89$  20.83$
  Q  -1.3290  7.15$  14.62$  20.89$
  Q  0.6645  18.79$  7.73$  6.94$
  Q  0.6645  18.86$  6.16$  7.2$
  Q  -1.3290  19.14$  6.94$  6.96$
  Q  0.6645  0.42$  8.5$  14.76$
  Q  0.6645  1.92$  8.64$  15.25$
  Q  -1.3290  1.07$  8.52$  15.36$
  Q  0.6645  9.14$  21.2$  10.78$
  Q  0.6645  10.51$  20.51$  11.14$
  Q  -1.3290  9.9$  21.09$  11.21$
  Q  0.6645  2.6$  9.49$  10.86$
  Q  0.6645  2.23$  8.31$  11.78$
  Q  -1.3290  2.73$  8.92$  11.49$
  Q  0.6645  12.26$  5.86$  13.29$
  Q  0.6645  12.27$  4.39$  12.86$
  Q  -1.3290  12.6$  5.15$  12.94$
  Q  0.6645  5.18$  15.23$  4.58$
  Q  0.6645  4.8$  16.3$  5.58$
  Q  -1.3290  5.26$  16$  4.91$
  Q  0.6645  17.78$  5.75$  3.45$
  Q  0.6645  16.76$  6.02$  4.55$
  Q  -1.3290  17.06$  5.62$  3.87$
  Q  0.6645  20.63$  11.81$  11.46$
  Q  0.6645  20.15$  10.81$  10.46$
  Q  -1.3290  20.65$  11.06$  11.09$
  Q  0.6645  13.42$  4.1$  17.04$
  Q  0.6645  12.13$  4.22$  16.03$
  Q  -1.3290  12.79$  3.85$  16.5$
  Q  0.6645  13.29$  8.73$  14.5$
  Q  0.6645  14.5$  9.15$  15.49$
  Q  -1.3290  14.08$  8.66$  14.88$
  Q  0.6645  4.19$  9.91$  18.86$
  Q  0.6645  4.38$  8.37$  18.45$
  Q  -1.3290  4.56$  9.22$  18.46$
  Q  0.6645  3.04$  6.06$  9.01$
  Q  0.6645  3.45$  4.82$  9.74$
  Q  -1.3290  2.94$  5.26$  9.28$
  Q  0.6645  3.76$  18.3$  6.51$
  Q  0.6645  4.68$  17.41$  7.47$
  Q  -1.3290  4.1$  17.58$  6.87$
  Q  0.6645  11.98$  17.69$  18.8$
  Q  0.6645  12.72$  16.88$  17.76$
  Q  -1.3290  12.16$  17.43$  18.02$
  Q  0.6645  2.74$  9.31$  13.43$
  Q  0.6645  3.95$  9.28$  14.43$
  Q  -1.3290  3.15$  9.32$  14.2$
  Q  0.6645  8.08$  11.6$  5.42$
  Q  0.6645  8.31$  12.13$  6.83$
  Q  -1.3290  8.07$  11.56$  6.29$
  Q  0.6645  5.56$  19.67$  8.18$
  Q  0.6645  5.12$  21.08$  8.04$
  Q  -1.3290  5.69$  20.49$  7.99$
  Q  0.6645  4.97$  9.34$  3.68$
  Q  0.6645  4.62$  10.16$  4.96$
  Q  -1.3290  4.48$  9.85$  4.19$
  Q  0.6645  6.75$  5.64$  17.76$
  Q  0.6645  5.56$  4.71$  17.61$
  Q  -1.3290  6.09$  5.18$  18.04$
  Q  0.6645  15.04$  6.81$  14.91$
  Q  0.6645  14.25$  5.59$  14.54$
  Q  -1.3290  14.95$  6$  14.73$
  Q  0.6645  2.45$  15.64$  17.81$
  Q  0.6645  1.49$  16.4$  18.46$
  Q  -1.3290  2.16$  16.33$  18.06$
  Q  0.6645  13.92$  2.41$  15.19$
  Q  0.6645  14.77$  2.88$  13.98$
  Q  -1.3290  14.42$  2.32$  14.52$
  Q  0.6645  17.9$  9.18$  13.16$
  Q  0.6645  19.2$  8.6$  13.57$
  Q  -1.3290  18.37$  8.77$  13.66$
  Q  0.6645  15.56$  11.97$  17.16$
  Q  0.6645  15.7$  13.6$  16.87$
  Q  -1.3290  15.32$  12.81$  16.97$
  Q  0.6645  21.03$  15.02$  8.26$
  Q  0.6645  22.63$  15.15$  8.1$
  Q  -1.3290  21.81$  15.37$  8.35$
  Q  0.6645  10.77$  0.89$  15.15$
  Q  0.6645  11.2$  2.06$  16.12$
  Q  -1.3290  11.2$  1.27$  15.83$
  Q  0.6645  4.62$  12.49$  4.71$
  Q  0.6645  6$  12.96$  4.04$
  Q  -1.3290  5.36$  12.94$  4.61$
  Q  0.6645  8.4$  17.34$  19.16$
  Q  0.6645  8.28$  18.86$  19.05$
  Q  -1.3290  8.47$  18.14$  19.44$
  Q  0.6645  18.4$  1.84$  12.53$
  Q  0.6645  16.98$  2.44$  12.66$
  Q  -1.3290  17.6$  1.86$  12.77$
  Q  0.6645  20.82$  7.35$  8.84$
  Q  0.6645  21.77$  6.06$  9.02$
  Q  -1.3290  21.21$  6.68$  9.26$
  Q  0.6645  2.31$  7.96$  5.03$
  Q  0.6645  1.69$  7.15$  6.15$
  Q  -1.3290  2.26$  7.73$  5.83$
  Q  0.6645  6.09$  5.62$  13.43$
  Q  0.6645  6.35$  4.6$  14.48$
  Q  -1.3290  6.58$  5.2$  13.96$
  Q  0.6645  18.56$  6.92$  14.95$
  Q  0.6645  18.17$  5.89$  16.14$
  Q  -1.3290  18.6$  6.21$  15.46$
  Q  0.6645  18.17$  17.67$  5.69$
  Q  0.6645  17.84$  16.38$  4.84$
  Q  -1.3290  17.64$  17.1$  5.26$
  Q  0.6645  18.6$  9.13$  9.71$
  Q  0.6645  19.56$  9.63$  8.61$
  Q  -1.3290  19.09$  9.69$  9.32$
  Q  0.6645  6.76$  2.93$  9.86$
  Q  0.6645  7.39$  3.22$  11.24$
  Q  -1.3290  7.11$  2.69$  10.6$
  Q  0.6645  16.88$  3.64$  15.88$
  Q  0.6645  16.02$  4.93$  15.87$
  Q  -1.3290  16.59$  4.37$  16.21$
  Q  0.6645  10.37$  16.45$  6.14$
  Q  0.6645  11.54$  15.56$  5.81$
  Q  -1.3290  11.19$  16.31$  6.02$
  Q  0.6645  15.29$  19.37$  14.22$
  Q  0.6645  13.95$  19.71$  13.93$
  Q  -1.3290  14.69$  19.43$  13.73$
  Q  0.6645  6.42$  12.2$  1$
  Q  0.6645  6.41$  13.66$  1.64$
  Q  -1.3290  6.68$  12.85$  1.48$
  Q  0.6645  12.31$  11.95$  5.1$
  Q  0.6645  12.36$  13.11$  6.01$
  Q  -1.3290  11.98$  12.49$  5.62$
  Q  0.6645  13.47$  10.38$  3.86$
  Q  0.6645  13.83$  11.69$  3.07$
  Q  -1.3290  13.33$  11.16$  3.52$
  Q  0.6645  12.53$  8.13$  5.23$
  Q  0.6645  12.8$  7.97$  3.65$
  Q  -1.3290  12.55$  8.36$  4.38$
  Q  0.6645  15.67$  15.14$  4.6$
  Q  0.6645  16.18$  15.86$  5.76$
  Q  -1.3290  15.78$  15.24$  5.41$
  Q  0.6645  14.08$  6.24$  4.64$
  Q  0.6645  12.61$  5.75$  4.38$
  Q  -1.3290  13.42$  6$  4.15$
  Q  0.6645  7.09$  5.3$  9.12$
  Q  0.6645  6.05$  5.69$  10.18$
  Q  -1.3290  6.71$  5.82$  9.66$
  Q  0.6645  7.37$  19.73$  7.43$
  Q  0.6645  8.78$  20.22$  6.74$
  Q  -1.3290  8.2$  19.67$  7.09$
  Q  0.6645  12.28$  19.64$  10.58$
  Q  0.6645  12.15$  19.76$  12.11$
  Q  -1.3290  12.09$  19.37$  11.35$
  Q  0.6645  17.16$  7.05$  10.24$
  Q  0.6645  17$  8.23$  11.18$
  Q  -1.3290  17.44$  7.7$  10.71$
  Q  0.6645  16.11$  4.89$  10.34$
  Q  0.6645  15.47$  5.46$  9.13$
  Q  -1.3290  15.99$  5.46$  9.77$
  Q  0.6645  16.3$  12.42$  2.53$
  Q  0.6645  14.95$  12.43$  1.54$
  Q  -1.3290  15.42$  12.49$  2.28$
  Q  0.6645  21.84$  9.93$  7.72$
  Q  0.6645  21.13$  9.74$  6.37$
  Q  -1.3290  21.2$  9.86$  7.21$
  Q  0.6645  9.75$  20.17$  14.14$
  Q  0.6645  9.19$  19$  15.08$
  Q  -1.3290  9.17$  19.67$  14.54$
  Q  0.6645  5.35$  17.99$  16.85$
  Q  0.6645  3.94$  17.61$  17.3$
  Q  -1.3290  4.77$  17.77$  17.41$
  Q  0.6645  18.69$  12.79$  1.62$
  Q  0.6645  18.5$  12.95$  3.11$
  Q  -1.3290  18.28$  12.7$  2.33$
  Q  0.6645  15.65$  4.73$  13.09$
  Q  0.6645  14.97$  3.82$  12.14$
  Q  -1.3290  15.51$  4.02$  12.72$
  Q  0.6645  6.31$  14.97$  18.78$
  Q  0.6645  5.46$  16.09$  18.18$
  Q  -1.3290  5.81$  15.32$  18.21$
  Q  0.6645  0.27$  14.19$  14.94$
  Q  0.6645  0.38$  15.01$  16.23$
  Q  -1.3290  0.42$  14.9$  15.39$
  Q  0.6645  18.4$  8.92$  15.56$
  Q  0.6645  19.31$  9.67$  16.59$
  Q  -1.3290  18.68$  9.16$  16.34$
  Q  0.6645  12.01$  20.52$  7.96$
  Q  0.6645  11.12$  19.54$  8.79$
  Q  -1.3290  11.79$  19.76$  8.3$
  Q  0.6645  10.78$  15.73$  2.72$
  Q  0.6645  10.99$  16.11$  1.25$
  Q  -1.3290  10.73$  16.24$  2.03$
  Q  0.6645  19.36$  14.27$  4.82$
  Q  0.6645  17.88$  13.99$  5.3$
  Q  -1.3290  18.52$  14.31$  4.82$
  Q  0.6645  5.98$  19.58$  15.5$
  Q  0.6645  7.31$  18.98$  16.05$
  Q  -1.3290  6.51$  18.95$  15.71$
  Q  0.6645  18.36$  8.02$  18.11$
  Q  0.6645  19.71$  7.86$  18.79$
  Q  -1.3290  18.88$  7.83$  18.76$
  Q  0.6645  13.39$  12.74$  -0.54$
  Q  0.6645  12.22$  12.59$  0.49$
  Q  -1.3290  13.04$  12.55$  0.22$
  Q  0.6645  8.54$  19.41$  4.05$
  Q  0.6645  8.31$  18.59$  5.39$
  Q  -1.3290  8.29$  18.74$  4.52$
  Q  0.6645  8.42$  20.74$  17.74$
  Q  0.6645  6.9$  20.32$  17.36$
  Q  -1.3290  7.73$  20.24$  17.57$
  Q  0.6645  10.9$  13.73$  4.37$
  Q  0.6645  9.53$  14.02$  3.8$
  Q  -1.3290  10.26$  14.19$  4.17$
  Q  0.6645  12.21$  3.76$  9.16$
  Q  0.6645  12.55$  5.29$  9.27$
  Q  -1.3290  12.4$  4.55$  8.86$
  Q  0.6645  12.9$  1.99$  10.62$
  Q  0.6645  11.76$  1.55$  9.79$
  Q  -1.3290  12.17$  2.1$  10.29$
  Q  0.6645  1.96$  13.77$  19.84$
  Q  0.6645  2.18$  13.1$  18.47$
  Q  -1.3290  1.94$  13.16$  19.31$
  Q  0.6645  12.5$  9.16$  20.56$
  Q  0.6645  11.93$  7.69$  20.5$
  Q  -1.3290  11.95$  8.54$  20.71$
  Q  0.6645  11.94$  10.66$  17.14$
  Q  0.6645  10.9$  11.93$  17.05$
  Q  -1.3290  11.23$  11.12$  16.88$
  Q  0.6645  7.84$  12.42$  2.94$
  Q  0.6645  9.04$  11.83$  3.72$
  Q  -1.3290  8.32$  12.3$  3.64$
  Q  0.6645  14.35$  15.05$  18.72$
  Q  0.6645  14.72$  15.79$  17.43$
  Q  -1.3290  14.46$  15.75$  18.23$
  Q  0.6645  15.9$  12.14$  5.9$
  Q  0.6645  14.93$  13.03$  6.79$
  Q  -1.3290  15.47$  12.4$  6.6$
  Q  0.6645  7.39$  6.88$  14.32$
  Q  0.6645  7.11$  8.13$  15.06$
  Q  -1.3290  7.6$  7.61$  14.61$
  Q  0.6645  5.33$  7.43$  7.55$
  Q  0.6645  5.92$  6.35$  6.56$
  Q  -1.3290  5.54$  7.09$  6.78$
  Q  0.6645  9.6$  5.46$  10.82$
  Q  0.6645  9.18$  6.24$  9.53$
  Q  -1.3290  9.66$  6.07$  10.23$
  Q  0.6645  15.56$  16.16$  12.79$
  Q  0.6645  14.08$  16.53$  12.72$
  Q  -1.3290  14.76$  16.23$  13.07$
  Q  0.6645  3.57$  10.8$  7.34$
  Q  0.6645  2.61$  9.69$  6.91$
  Q  -1.3290  2.83$  10.46$  7.11$
  Q  0.6645  4.45$  3.68$  11.15$
  Q  0.6645  4.51$  5.21$  11.45$
  Q  -1.3290  4.73$  4.51$  11.06$
  Q  0.6645  2.54$  12.35$  10.45$
  Q  0.6645  2.5$  11.65$  9.06$
  Q  -1.3290  2.67$  11.74$  9.88$
  Q  0.6645  6.77$  3.87$  4.72$
  Q  0.6645  7.74$  4.45$  3.58$
  Q  -1.3290  7.5$  3.9$  4.21$
  Q  0.6645  9.96$  7.45$  13.85$
  Q  0.6645  9.8$  6.76$  12.51$
  Q  -1.3290  10.17$  6.89$  13.23$
  Q  0.6645  9.08$  18.76$  8.62$
  Q  0.6645  9.58$  17.38$  9.21$
  Q  -1.3290  9.49$  18.22$  9.16$
  Q  0.6645  13.88$  1.14$  13.11$
  Q  0.6645  14.18$  0.46$  11.85$
  Q  -1.3290  13.69$  0.68$  12.44$
  Q  0.6645  21.65$  8.03$  12.73$
  Q  0.6645  21.27$  9.45$  12.52$
  Q  -1.3290  21.53$  8.81$  12.98$
  Q  0.6645  9.46$  14.68$  18.6$
  Q  0.6645  8.44$  15.22$  19.68$
  Q  -1.3290  9.01$  15.28$  19.04$
  Q  0.6645  8.03$  15.35$  15.72$
  Q  0.6645  7.04$  14.66$  16.72$
  Q  -1.3290  7.74$  14.72$  16.21$
  Q  0.6645  9.63$  13.95$  16.81$
  Q  0.6645  11.2$  14.26$  17.41$
  Q  -1.3290  10.37$  13.88$  17.33$
  Q  0.6645  19.23$  4.72$  14.24$
  Q  0.6645  19.84$  5.13$  12.82$
  Q  -1.3290  19.69$  4.62$  13.53$
  Q  0.6645  8.26$  6.81$  16.44$
  Q  0.6645  8.44$  7.02$  17.89$
  Q  -1.3290  8.34$  6.56$  17.21$
  Q  0.6645  2.7$  8.49$  8.69$
  Q  0.6645  3.42$  7.8$  7.51$
  Q  -1.3290  3.26$  7.99$  8.32$
  Q  0.6645  4.26$  14.08$  17.47$
  Q  0.6645  3.31$  13.38$  16.48$
  Q  -1.3290  3.51$  13.86$  17.16$
  Q  0.6645  13.15$  3.01$  1.95$
  Q  0.6645  13.49$  4.04$  3.13$
  Q  -1.3290  13.62$  3.35$  2.61$
  Q  0.6645  9.19$  3.49$  17.87$
  Q  0.6645  8.52$  4.66$  17$
  Q  -1.3290  8.7$  3.83$  17.24$
  Q  0.6645  19.03$  4.41$  8.71$
  Q  0.6645  17.62$  5.24$  8.61$
  Q  -1.3290  18.33$  4.82$  8.33$
*
