! NoMOPrint PrintBasis #MINIPRINT SMALLPRINT LARGEPRINT
! ALLPOP XYZFILE
#! BP86 3-21G   TightSCF
! ENGRAD
! B3LYP NormalPNO PModel #DecontractAux
#! VerySlowConv 
 %maxcore 5000
 %scf  maxiter   500  end 

%pal
    nprocs 32
end

%basis
    NewGTO O    # New basis for oxygen
        "aug-cc-pVTZ"
    end
    NewGTO C    # New basis for carbon
        "aug-cc-pVTZ"
    end
    NewGTO H    # New basis for hydrogen
        "cc-pVTZ"
    end
end

* xyz 0   1
  C  9.45  12.62  11.02  #1
  H  10.05  13.5  11.2  #2
  H  8.52  12.84  11.45  #3
  C  10.23  11.48  11.6  #4
  H  10.3  11.69  12.64  #5
  H  9.72  10.53  11.5  #6
  C  11.69  11.29  11.17  #7
  H  12.29  11.88  11.92  #8
  H  11.9  11.81  10.19  #9
  C  12.21  9.87  11.18  #10
  H  13.29  9.83  11.02  #11
  H  11.7  9.28  10.46  #12
  O  11.96  9.31  12.54  #13
  H  12.2  8.3  12.5  #14
  O  9.3  12.45  9.56  #15
  H  8.82  13.2  9.17  #16
  O  7.36  13.37  7.31  #17
  H  6.86  13.96  7.95  #18
  H  6.92  13.31  6.44  #19
  O  10.57  11.61  7.41  #20
  H  10.29  11.67  8.33  #21
  H  10.63  12.52  7.03  #22
  O  9.47  15.85  8.79  #23
  H  9.49  15.58  7.87  #24
  H  8.94  16.67  8.81  #25
  O  16.18  10  9.54  #26
  H  15.55  10.69  9.47  #27
  H  16.74  10.23  10.28  #28
  O  7.01  10.51  8.08  #29
  H  7.72  9.9  8.26  #30
  H  7.51  11.31  8.16  #31
  O  17.48  9.71  6.88  #32
  H  17.08  9.94  7.66  #33
  H  18.41  9.58  7.06  #34
  O  15.68  7.45  8.59  #35
  H  15.82  8.29  9  #36
  H  15.53  6.86  9.39  #37
  O  8.49  18.35  9.18  #38
  H  8.82  18.87  9.91  #39
  H  7.53  18.5  9.34  #40
  O  13.16  10.78  6.4  #41
  H  12.36  11.19  6.66  #42
  H  12.96  9.87  6.29  #43
  O  12.42  16.25  9.75  #44
  H  11.47  16.2  9.6  #45
  H  12.67  17.2  9.82  #46
  O  15.77  7.66  12.31  #47
  H  15.37  8.08  13.08  #48
  H  15.44  8.06  11.51  #49
  O  14.39  11.74  8.7  #50
  H  14.25  11.21  7.86  #51
  H  14.45  12.69  8.45  #52
  O  13.61  11.59  14.55  #53
  H  14.32  12.28  14.48  #54
  H  13.73  10.98  13.87  #55
  O  6.2  14.85  9.29  #56
  H  6.11  15.76  9.71  #57
  H  5.51  14.21  9.43  #58
  O  9.29  15.99  11.73  #59
  H  9.24  15.88  10.72  #60
  H  10.16  16.38  11.93  #61
  O  17.68  13.08  8.76  #62
  H  16.93  12.52  9.01  #63
  H  18.48  12.54  8.6  #64
  O  8.58  8.78  13.63  #65
  H  7.98  8.9  12.86  #66
  H  9.17  9.61  13.71  #67
  O  10.07  10.1  4.98  #68
  H  10.62  10.25  5.78  #69
  H  10.63  9.63  4.36  #70
  O  6.37  12.91  4.61  #71
  H  7.17  12.47  4.32  #72
  H  5.62  12.38  4.31  #73
  O  6.98  9.48  5.26  #74
  H  7.62  10.23  5.27  #75
  H  6.71  9.6  6.14  #76
  O  13.88  14.28  11.41  #77
  H  13.26  14.85  10.92  #78
  H  14.77  14.57  11.16  #79
  O  12.41  6.27  12.63  #80
  H  12.77  6.12  11.72  #81
  H  13.09  5.99  13.26  #82
  O  7.5  7.72  9.49  #83
  H  8.03  6.99  9.86  #84
  H  6.88  7.26  8.93  #85
  O  9.8  14.22  6.44  #86
  H  8.97  13.77  6.64  #87
  H  9.89  14.32  5.49  #88
  O  17.87  10.93  11.62  #89
  H  17.32  11.28  12.34  #90
  H  18.4  11.71  11.49  #91
  O  4.67  9.26  8.54  #92
  H  3.81  9.67  8.65  #93
  H  5.29  9.92  8.87  #94
  O  10.56  10.14  14.66  #95
  H  11.19  10.03  13.91  #96
  H  10.83  11  15.02  #97
  O  9.72  6.27  13.44  #98
  H  9.54  7.17  13.77  #99
  H  10.62  6.38  13  #100
  Q  0.6645  19.11$  13.14$  5.35$
  Q  0.6645  20.11$  13.86$  4.4$
  Q  -1.3290  19.89$  13.39$  5.09$
  Q  0.6645  18.22$  15.28$  17.1$
  Q  0.6645  18.67$  15.75$  15.71$
  Q  -1.3290  18.63$  15.8$  16.55$
  Q  0.6645  12.71$  20.23$  8.93$
  Q  0.6645  11.47$  20.82$  8.12$
  Q  -1.3290  12.28$  20.79$  8.42$
  Q  0.6645  9$  5.78$  11.9$
  Q  0.6645  9.81$  5.59$  10.63$
  Q  -1.3290  9.11$  5.52$  11.11$
  Q  0.6645  20.65$  12.4$  12.35$
  Q  0.6645  20.04$  13.7$  11.8$
  Q  -1.3290  20.05$  12.93$  12.17$
  Q  0.6645  12.21$  2.95$  9.11$
  Q  0.6645  13.63$  3.63$  9.01$
  Q  -1.3290  12.9$  3.39$  9.36$
  Q  0.6645  15.51$  8.63$  15.04$
  Q  0.6645  14.22$  7.75$  14.97$
  Q  -1.3290  14.72$  8.4$  14.72$
  Q  0.6645  11.75$  7.88$  -0.52$
  Q  0.6645  12.19$  8.45$  0.93$
  Q  -1.3290  11.76$  7.97$  0.34$
  Q  0.6645  14.6$  2.76$  4.69$
  Q  0.6645  13.12$  2.96$  5.07$
  Q  -1.3290  13.97$  3.21$  5.03$
  Q  0.6645  19.03$  7.14$  3.32$
  Q  0.6645  18.64$  7.77$  4.51$
  Q  -1.3290  18.99$  7.77$  3.78$
  Q  0.6645  5.01$  14.44$  11.93$
  Q  0.6645  3.92$  14.89$  12.99$
  Q  -1.3290  4.69$  14.68$  12.68$
  Q  0.6645  10.55$  2.5$  13.24$
  Q  0.6645  10.88$  3.85$  12.8$
  Q  -1.3290  11.08$  3.05$  12.91$
  Q  0.6645  0.47$  15.6$  9.13$
  Q  0.6645  1.98$  15.74$  8.87$
  Q  -1.3290  1.22$  15.94$  9.23$
  Q  0.6645  10.88$  5.63$  14.89$
  Q  0.6645  10.96$  5.33$  16.38$
  Q  -1.3290  11.27$  5.39$  15.59$
  Q  0.6645  17.66$  20.12$  11.91$
  Q  0.6645  17.1$  18.93$  12.76$
  Q  -1.3290  17.42$  19.69$  12.63$
  Q  0.6645  6.39$  20.4$  18.08$
  Q  0.6645  7.43$  19.77$  17.09$
  Q  -1.3290  6.67$  19.88$  17.5$
  Q  0.6645  4.85$  7.45$  17.28$
  Q  0.6645  3.99$  8.43$  16.28$
  Q  -1.3290  4.43$  7.68$  16.55$
  Q  0.6645  9.64$  21$  13.86$
  Q  0.6645  10.87$  20.55$  14.4$
  Q  -1.3290  10.11$  20.43$  14.15$
  Q  0.6645  14.78$  13.34$  12.94$
  Q  0.6645  16.14$  13.48$  13.67$
  Q  -1.3290  15.3$  13.5$  13.6$
  Q  0.6645  6.19$  14.77$  1.42$
  Q  0.6645  4.77$  14.35$  1.62$
  Q  -1.3290  5.39$  14.94$  1.49$
  Q  0.6645  11.69$  16.82$  15.82$
  Q  0.6645  12.98$  16.04$  15.5$
  Q  -1.3290  12.33$  16.59$  15.32$
  Q  0.6645  14.13$  21.21$  12.1$
  Q  0.6645  13.89$  20.69$  13.53$
  Q  -1.3290  14.21$  20.67$  12.76$
  Q  0.6645  4.88$  7.73$  19.63$
  Q  0.6645  6.01$  6.88$  19.07$
  Q  -1.3290  5.46$  7.53$  19.06$
  Q  0.6645  1.09$  14.18$  5.56$
  Q  0.6645  -0.23$  13.95$  6.32$
  Q  -1.3290  0.6$  14.09$  6.26$
  Q  0.6645  16.22$  4.78$  10.67$
  Q  0.6645  14.83$  4.24$  10.92$
  Q  -1.3290  15.39$  4.83$  10.67$
  Q  0.6645  13.81$  11.49$  4.73$
  Q  0.6645  14.75$  11.02$  3.66$
  Q  -1.3290  14.27$  11.58$  4.05$
  Q  0.6645  5.73$  7.12$  11.59$
  Q  0.6645  5.6$  6.74$  13.07$
  Q  -1.3290  5.36$  6.74$  12.25$
  Q  0.6645  10.15$  11.71$  20.06$
  Q  0.6645  10.79$  12.41$  18.91$
  Q  -1.3290  10.66$  11.77$  19.4$
  Q  0.6645  5.77$  11.66$  17.3$
  Q  0.6645  4.62$  11.61$  18.45$
  Q  -1.3290  5.32$  11.89$  18.03$
  Q  0.6645  21.08$  15.68$  11.52$
  Q  0.6645  19.67$  16.12$  11.37$
  Q  -1.3290  20.27$  15.56$  11.42$
  Q  0.6645  17.59$  7.82$  12.1$
  Q  0.6645  18.72$  8.67$  11.48$
  Q  -1.3290  18.33$  7.96$  11.69$
  Q  0.6645  14.87$  6.48$  3.39$
  Q  0.6645  15.43$  7.09$  4.55$
  Q  -1.3290  14.91$  7.05$  3.97$
  Q  0.6645  8.81$  8.62$  20.3$
  Q  0.6645  8.81$  8.85$  18.77$
  Q  -1.3290  9.04$  8.47$  19.48$
  Q  0.6645  12.22$  21.79$  15.86$
  Q  0.6645  13.1$  20.48$  15.79$
  Q  -1.3290  12.61$  21.1$  15.47$
  Q  0.6645  12.64$  19.41$  5.19$
  Q  0.6645  13.67$  20.68$  5.5$
  Q  -1.3290  13.19$  20.08$  5.01$
  Q  0.6645  16.51$  15.72$  3.81$
  Q  0.6645  16.95$  16.91$  2.8$
  Q  -1.3290  17.05$  16.25$  3.4$
  Q  0.6645  18.56$  12.74$  13.92$
  Q  0.6645  17.45$  12.18$  14.93$
  Q  -1.3290  17.82$  12.38$  14.14$
  Q  0.6645  6.04$  16.65$  6.54$
  Q  0.6645  7.05$  17.78$  6.79$
  Q  -1.3290  6.36$  17.33$  6.96$
  Q  0.6645  8.32$  14.98$  19.27$
  Q  0.6645  7.01$  14.58$  18.54$
  Q  -1.3290  7.84$  14.65$  18.64$
  Q  0.6645  2.36$  8.44$  11.64$
  Q  0.6645  3.6$  8.11$  12.6$
  Q  -1.3290  2.92$  8.57$  12.29$
  Q  0.6645  14.23$  5.04$  18.89$
  Q  0.6645  14.37$  3.5$  18.95$
  Q  -1.3290  14.37$  4.25$  18.54$
  Q  0.6645  2.82$  19.85$  10.94$
  Q  0.6645  4.2$  19.11$  10.49$
  Q  -1.3290  3.64$  19.57$  11.01$
  Q  0.6645  11.01$  6.37$  8.88$
  Q  0.6645  11.95$  5.22$  9.51$
  Q  -1.3290  11.43$  5.91$  9.52$
  Q  0.6645  10.37$  6.01$  6.67$
  Q  0.6645  9.36$  7.02$  7.14$
  Q  -1.3290  10.1$  6.64$  7.17$
  Q  0.6645  20.34$  14.17$  8.21$
  Q  0.6645  20$  15.18$  9.36$
  Q  -1.3290  20.34$  14.92$  8.63$
  Q  0.6645  20.3$  9.91$  14.11$
  Q  0.6645  19.01$  10.66$  14.33$
  Q  -1.3290  19.49$  9.99$  14.2$
  Q  0.6645  4.98$  18.13$  3.16$
  Q  0.6645  4.92$  16.66$  2.46$
  Q  -1.3290  4.67$  17.33$  2.98$
  Q  0.6645  3.8$  12.08$  2.55$
  Q  0.6645  3.31$  12.77$  1.27$
  Q  -1.3290  3.73$  12.72$  2$
  Q  0.6645  12.16$  17.38$  5.82$
  Q  0.6645  10.76$  17.95$  6.45$
  Q  -1.3290  11.57$  17.98$  6.1$
  Q  0.6645  1.61$  8.67$  9.2$
  Q  0.6645  1.5$  9.22$  7.8$
  Q  -1.3290  1.67$  9.28$  8.64$
  Q  0.6645  9.09$  17.99$  5.23$
  Q  0.6645  9.16$  19.3$  6.09$
  Q  -1.3290  8.88$  18.51$  5.88$
  Q  0.6645  9.6$  2.8$  8.28$
  Q  0.6645  10.44$  1.91$  7.48$
  Q  -1.3290  10.27$  2.33$  8.18$
  Q  0.6645  3.11$  10.31$  17.1$
  Q  0.6645  3.67$  10.69$  15.73$
  Q  -1.3290  3.28$  10.19$  16.26$
  Q  0.6645  13.74$  17.92$  14.64$
  Q  0.6645  14.72$  18.96$  13.91$
  Q  -1.3290  14.5$  18.31$  14.45$
  Q  0.6645  1.04$  11.52$  14.17$
  Q  0.6645  1.07$  10.74$  15.4$
  Q  -1.3290  0.87$  11.4$  14.95$
  Q  0.6645  17.63$  3.31$  11.52$
  Q  0.6645  18.54$  4.45$  10.93$
  Q  -1.3290  17.82$  4.11$  11.25$
  Q  0.6645  10.06$  10.28$  17.83$
  Q  0.6645  9.96$  9.67$  16.33$
  Q  -1.3290  9.73$  9.8$  17.16$
  Q  0.6645  8.83$  17.44$  2.61$
  Q  0.6645  8.08$  16.62$  3.79$
  Q  -1.3290  8.7$  17.1$  3.4$
  Q  0.6645  10.83$  5.65$  2.84$
  Q  0.6645  10.07$  5.55$  4.18$
  Q  -1.3290  10.29$  5.9$  3.45$
  Q  0.6645  13.22$  19.29$  11.37$
  Q  0.6645  11.87$  19.57$  10.72$
  Q  -1.3290  12.65$  19.25$  10.72$
  Q  0.6645  5.39$  20.26$  3.1$
  Q  0.6645  6.82$  19.56$  3.27$
  Q  -1.3290  6$  19.72$  3.42$
  Q  0.6645  11.85$  13.45$  1.12$
  Q  0.6645  10.35$  13.01$  1.13$
  Q  -1.3290  11.01$  13.54$  1.11$
  Q  0.6645  1.27$  8.85$  13.76$
  Q  0.6645  -0.22$  8.24$  13.53$
  Q  -1.3290  0.41$  8.81$  13.84$
  Q  0.6645  9.85$  20.84$  11$
  Q  0.6645  9.92$  19.77$  12.11$
  Q  -1.3290  9.97$  20.06$  11.31$
  Q  0.6645  16.62$  11.42$  19.67$
  Q  0.6645  15.44$  12.46$  19.1$
  Q  -1.3290  15.97$  12.01$  19.7$
  Q  0.6645  2.02$  13.1$  7.77$
  Q  0.6645  1.95$  11.84$  8.56$
  Q  -1.3290  2.34$  12.47$  8.18$
  Q  0.6645  14.06$  7.98$  17.74$
  Q  0.6645  14.64$  9.31$  18.08$
  Q  -1.3290  14.49$  8.53$  18.24$
  Q  0.6645  9.41$  19$  17.07$
  Q  0.6645  9.47$  19.91$  15.91$
  Q  -1.3290  9.33$  19.74$  16.69$
  Q  0.6645  2.63$  17.28$  16.76$
  Q  0.6645  3.27$  18.36$  15.87$
  Q  -1.3290  2.73$  17.72$  16.05$
  Q  0.6645  11.21$  4.68$  19.87$
  Q  0.6645  12.61$  4.96$  20.69$
  Q  -1.3290  11.84$  4.56$  20.46$
  Q  0.6645  8.7$  21.58$  7.94$
  Q  0.6645  9.22$  20.15$  8.08$
  Q  -1.3290  9.3$  20.94$  7.85$
  Q  0.6645  7$  8.82$  10.79$
  Q  0.6645  5.99$  9.66$  11.66$
  Q  -1.3290  6.63$  9.1$  11.5$
  Q  0.6645  15.11$  15.04$  7.45$
  Q  0.6645  13.94$  15.14$  8.5$
  Q  -1.3290  14.43$  14.8$  7.88$
  Q  0.6645  6.07$  16.26$  12.34$
  Q  0.6645  7.52$  16.41$  11.72$
  Q  -1.3290  6.68$  16.55$  11.81$
  Q  0.6645  11.73$  16.53$  13.42$
  Q  0.6645  12.47$  16.73$  12.07$
  Q  -1.3290  11.86$  16.87$  12.64$
  Q  0.6645  16.97$  13.57$  17.55$
  Q  0.6645  16.8$  14.53$  18.77$
  Q  -1.3290  16.78$  14.3$  17.97$
  Q  0.6645  14.82$  14.61$  15.03$
  Q  0.6645  14.99$  15.13$  16.45$
  Q  -1.3290  14.54$  14.84$  15.78$
  Q  0.6645  17.31$  10.64$  3.4$
  Q  0.6645  17.62$  11.86$  4.31$
  Q  -1.3290  17.73$  11.33$  3.63$
  Q  0.6645  2.98$  15.92$  18.77$
  Q  0.6645  3.97$  15.87$  17.68$
  Q  -1.3290  3.49$  16.27$  18.2$
  Q  0.6645  20.95$  12.68$  15.13$
  Q  0.6645  20$  13.97$  15.49$
  Q  -1.3290  20.24$  13.11$  15.47$
  Q  0.6645  11.94$  1.62$  17.11$
  Q  0.6645  10.47$  1.44$  16.78$
  Q  -1.3290  11.23$  1.16$  17.01$
  Q  0.6645  18.17$  15.63$  13.66$
  Q  0.6645  19.59$  15.32$  13.23$
  Q  -1.3290  18.98$  15.4$  13.79$
  Q  0.6645  13.36$  13.76$  17.9$
  Q  0.6645  12.78$  13.47$  19.35$
  Q  -1.3290  13.28$  13.35$  18.65$
  Q  0.6645  5.64$  16.3$  4.18$
  Q  0.6645  6.47$  15$  4.14$
  Q  -1.3290  6.34$  15.82$  4.33$
  Q  0.6645  9.65$  5.9$  18.39$
  Q  0.6645  11.14$  6.29$  18.52$
  Q  -1.3290  10.47$  5.84$  18.23$
  Q  0.6645  5.12$  19.67$  5.34$
  Q  0.6645  4.4$  18.83$  6.46$
  Q  -1.3290  4.65$  19.54$  6.04$
  Q  0.6645  12.5$  8.25$  3.77$
  Q  0.6645  11.23$  7.76$  3.35$
  Q  -1.3290  11.81$  8.34$  3.39$
  Q  0.6645  3.44$  7.03$  3.78$
  Q  0.6645  4.22$  7.09$  5$
  Q  -1.3290  3.96$  6.71$  4.31$
  Q  0.6645  20.06$  7.03$  12.55$
  Q  0.6645  21.29$  6.21$  13.15$
  Q  -1.3290  20.9$  6.86$  12.74$
  Q  0.6645  8.45$  2.16$  10.86$
  Q  0.6645  8.2$  3.73$  10.62$
  Q  -1.3290  8.04$  2.88$  10.59$
  Q  0.6645  13.33$  3.27$  17.05$
  Q  0.6645  12.41$  3.39$  15.69$
  Q  -1.3290  12.95$  3.04$  16.25$
  Q  0.6645  1.28$  16.04$  11.07$
  Q  0.6645  1.01$  16.51$  12.51$
  Q  -1.3290  1.08$  15.92$  11.89$
  Q  0.6645  12.55$  11.55$  20.33$
  Q  0.6645  14.06$  11.58$  20.54$
  Q  -1.3290  13.28$  11.34$  20.73$
  Q  0.6645  13.95$  11.43$  17.81$
  Q  0.6645  13.91$  11.2$  16.3$
  Q  -1.3290  14.26$  11.2$  17.08$
  Q  0.6645  2.54$  14.02$  3$
  Q  0.6645  1.35$  13.18$  3.53$
  Q  -1.3290  1.82$  13.86$  3.47$
  Q  0.6645  1.53$  11.24$  5.3$
  Q  0.6645  2.54$  11.4$  6.43$
  Q  -1.3290  2.25$  11.08$  5.72$
  Q  0.6645  4.6$  11.62$  12.91$
  Q  0.6645  4.16$  10.45$  12.11$
  Q  -1.3290  4.59$  11.14$  12.26$
  Q  0.6645  11.55$  0.99$  5.06$
  Q  0.6645  12.33$  1.36$  6.21$
  Q  -1.3290  11.7$  1.47$  5.7$
  Q  0.6645  4.4$  12.39$  10.62$
  Q  0.6645  3.69$  12.87$  9.32$
  Q  -1.3290  4.16$  12.94$  10.03$
  Q  0.6645  17.2$  6.13$  6.12$
  Q  0.6645  17.03$  7.75$  6.07$
  Q  -1.3290  17.19$  6.94$  5.79$
  Q  0.6645  17.13$  16.45$  6.77$
  Q  0.6645  16.01$  17.2$  6.07$
  Q  -1.3290  16.34$  16.55$  6.53$
  Q  0.6645  8.27$  1.27$  14.12$
  Q  0.6645  9.06$  2.32$  14.82$
  Q  -1.3290  8.94$  1.72$  14.23$
  Q  0.6645  14.06$  4.33$  3.7$
  Q  0.6645  13.22$  4.95$  2.5$
  Q  -1.3290  13.93$  4.71$  2.92$
  Q  0.6645  8.23$  6.91$  19.33$
  Q  0.6645  7.8$  5.56$  20.02$
  Q  -1.3290  7.87$  6.13$  19.42$
  Q  0.6645  15.45$  8.88$  3.41$
  Q  0.6645  15.59$  9.51$  2.06$
  Q  -1.3290  15.73$  9.46$  2.87$
  Q  0.6645  7.79$  10.89$  16.17$
  Q  0.6645  7.1$  10.36$  14.91$
  Q  -1.3290  7.14$  10.77$  15.64$
  Q  0.6645  10.81$  14.43$  18.59$
  Q  0.6645  9.53$  14.07$  17.78$
  Q  -1.3290  10.36$  14.09$  17.95$
  Q  0.6645  19.79$  8$  17.23$
  Q  0.6645  19.03$  6.95$  18.06$
  Q  -1.3290  19.13$  7.69$  17.67$
  Q  0.6645  15.99$  11.82$  16.84$
  Q  0.6645  17.33$  11.48$  17.46$
  Q  -1.3290  16.82$  11.85$  16.91$
  Q  0.6645  6.56$  3.81$  14.88$
  Q  0.6645  7.29$  5.21$  14.63$
  Q  -1.3290  7.13$  4.35$  14.57$
  Q  0.6645  4.84$  21.05$  11.17$
  Q  0.6645  6.01$  21.51$  10.22$
  Q  -1.3290  5.5$  21.53$  10.89$
  Q  0.6645  18$  4.53$  13.18$
  Q  0.6645  17.52$  4.83$  14.69$
  Q  -1.3290  17.75$  4.36$  13.99$
  Q  0.6645  5.71$  7.26$  15.34$
  Q  0.6645  6.88$  7.97$  14.57$
  Q  -1.3290  6.29$  7.37$  14.7$
  Q  0.6645  20.05$  11.38$  9.74$
  Q  0.6645  20.02$  10.65$  8.4$
  Q  -1.3290  19.91$  11.31$  8.91$
  Q  0.6645  2.89$  16.23$  14.71$
  Q  0.6645  1.98$  15.03$  14.78$
  Q  -1.3290  2.57$  15.53$  14.44$
  Q  0.6645  14.64$  2.79$  15.15$
  Q  0.6645  16.07$  2.9$  14.45$
  Q  -1.3290  15.43$  2.54$  14.89$
  Q  0.6645  6.08$  2.55$  12.82$
  Q  0.6645  5.27$  1.46$  12.11$
  Q  -1.3290  5.42$  2.02$  12.72$
  Q  0.6645  12.62$  0.29$  10.33$
  Q  0.6645  13.45$  1.35$  11.21$
  Q  -1.3290  13.26$  0.58$  10.86$
  Q  0.6645  2.36$  13.79$  16.29$
  Q  0.6645  1.23$  12.87$  15.86$
  Q  -1.3290  1.56$  13.59$  16.18$
  Q  0.6645  12.46$  8.74$  19.39$
  Q  0.6645  10.95$  8.19$  19.54$
  Q  -1.3290  11.83$  8.17$  19.58$
  Q  0.6645  12.99$  15.11$  6.25$
  Q  0.6645  12.37$  15.35$  4.89$
  Q  -1.3290  12.79$  15.55$  5.57$
  Q  0.6645  8.4$  8.96$  1.26$
  Q  0.6645  9.93$  8.72$  0.71$
  Q  -1.3290  9.15$  9.08$  0.76$
  Q  0.6645  4.69$  5.19$  11.81$
  Q  0.6645  4.67$  3.55$  11.76$
  Q  -1.3290  4.36$  4.36$  11.75$
  Q  0.6645  18.08$  4.95$  7.59$
  Q  0.6645  17.97$  4.03$  6.38$
  Q  -1.3290  17.66$  4.54$  6.97$
  Q  0.6645  14.03$  12.43$  2.19$
  Q  0.6645  13.65$  11.84$  0.77$
  Q  -1.3290  13.74$  12.45$  1.39$
  Q  0.6645  6.56$  10.71$  19.64$
  Q  0.6645  6.65$  9.23$  19.43$
  Q  -1.3290  6.75$  9.92$  19.87$
  Q  0.6645  15.75$  17.14$  8.41$
  Q  0.6645  15.72$  18.28$  9.47$
  Q  -1.3290  15.9$  17.49$  9.17$
  Q  0.6645  15.91$  20.52$  8.48$
  Q  0.6645  15.13$  21.04$  9.57$
  Q  -1.3290  15.45$  20.45$  9.14$
  Q  0.6645  9.02$  3.27$  17.54$
  Q  0.6645  8.66$  4.07$  16.37$
  Q  -1.3290  9.01$  3.42$  16.75$
  Q  0.6645  9.7$  17.16$  17.78$
  Q  0.6645  9.52$  16.51$  16.37$
  Q  -1.3290  9.86$  17.03$  16.93$
  Q  0.6645  5.4$  5.14$  7.81$
  Q  0.6645  5.39$  3.88$  8.84$
  Q  -1.3290  5.6$  4.35$  8.12$
  Q  0.6645  20.72$  8.51$  6.98$
  Q  0.6645  19.74$  8.26$  8.09$
  Q  -1.3290  20.1$  8.76$  7.5$
  Q  0.6645  3.72$  6.35$  7.18$
  Q  0.6645  4.42$  7.64$  7.61$
  Q  -1.3290  4.38$  6.83$  7.35$
  Q  0.6645  7.73$  7.88$  5.9$
  Q  0.6645  6.91$  6.47$  6.2$
  Q  -1.3290  7.59$  7.07$  6.21$
  Q  0.6645  8.83$  14.9$  2.47$
  Q  0.6645  8.32$  13.4$  2.37$
  Q  -1.3290  8.32$  14.26$  2.22$
  Q  0.6645  14.2$  5.77$  16.51$
  Q  0.6645  12.81$  6.16$  16.23$
  Q  -1.3290  13.59$  6.33$  16.46$
  Q  0.6645  17.63$  7.21$  8.33$
  Q  0.6645  18.55$  7.03$  9.58$
  Q  -1.3290  18.34$  7.02$  8.73$
  Q  0.6645  16.73$  13.68$  5.72$
  Q  0.6645  17.43$  12.5$  6.59$
  Q  -1.3290  17.17$  12.93$  5.87$
  Q  0.6645  15.32$  5.68$  14.52$
  Q  0.6645  15$  5.79$  13.02$
  Q  -1.3290  14.86$  5.55$  13.82$
  Q  0.6645  16.77$  2.59$  16.72$
  Q  0.6645  18.33$  2.39$  17.17$
  Q  -1.3290  17.47$  2.42$  17.23$
  Q  0.6645  4.61$  15.4$  7.87$
  Q  0.6645  3.55$  16.3$  7.17$
  Q  -1.3290  3.82$  15.73$  7.71$
  Q  0.6645  5.01$  14.46$  16.31$
  Q  0.6645  4.67$  13.39$  17.46$
  Q  -1.3290  4.52$  14.02$  16.89$
  Q  0.6645  11$  13.63$  16.16$
  Q  0.6645  11.95$  12.96$  15.11$
  Q  -1.3290  11.19$  13.2$  15.44$
  Q  0.6645  6.54$  8.96$  3.37$
  Q  0.6645  6.01$  9.6$  2.13$
  Q  -1.3290  6.53$  9.11$  2.57$
  Q  0.6645  2.77$  13.46$  11.71$
  Q  0.6645  1.63$  13.96$  12.6$
  Q  -1.3290  2.17$  13.4$  12.29$
  Q  0.6645  8.08$  2.72$  6.76$
  Q  0.6645  7.44$  3.86$  7.63$
  Q  -1.3290  7.99$  3.52$  7.07$
  Q  0.6645  11.23$  14.18$  21.18$
  Q  0.6645  12.21$  15.25$  20.64$
  Q  -1.3290  11.71$  14.57$  20.6$
  Q  0.6645  5.36$  19.4$  16.13$
  Q  0.6645  5.1$  19.37$  14.66$
  Q  -1.3290  4.9$  19.51$  15.44$
  Q  0.6645  9.53$  4.08$  6.09$
  Q  0.6645  10.75$  3.45$  5.78$
  Q  -1.3290  10.29$  4.1$  5.8$
  Q  0.6645  6.17$  0.61$  13.89$
  Q  0.6645  6.69$  -0.72$  14.18$
  Q  -1.3290  6.67$  0.08$  14.27$
  Q  0.6645  1.93$  17.31$  5.35$
  Q  0.6645  3.27$  17.35$  4.5$
  Q  -1.3290  2.78$  17.21$  5.21$
  Q  0.6645  14.18$  17.51$  3.11$
  Q  0.6645  12.92$  17.52$  2.22$
  Q  -1.3290  13.6$  17.15$  2.64$
  Q  0.6645  20.49$  5.79$  10.63$
  Q  0.6645  20.53$  4.33$  11.16$
  Q  -1.3290  20.24$  4.98$  10.68$
  Q  0.6645  14.42$  3.54$  7.02$
  Q  0.6645  15.66$  4.05$  7.87$
  Q  -1.3290  15.04$  3.53$  7.64$
  Q  0.6645  8.25$  10.95$  2.59$
  Q  0.6645  9.29$  11.04$  3.66$
  Q  -1.3290  8.64$  11.35$  3.2$
  Q  0.6645  15.7$  2.02$  8.9$
  Q  0.6645  16.08$  1.45$  10.2$
  Q  -1.3290  16.11$  1.49$  9.38$
  Q  0.6645  16.67$  16.03$  12.32$
  Q  0.6645  16.07$  16.9$  13.45$
  Q  -1.3290  16.67$  16.6$  12.96$
  Q  0.6645  6.19$  14.86$  14.13$
  Q  0.6645  7.39$  15.09$  14.96$
  Q  -1.3290  6.6$  15.01$  14.84$
  Q  0.6645  14.88$  13.45$  4.34$
  Q  0.6645  14.48$  14.88$  4.41$
  Q  -1.3290  14.99$  14.28$  4.23$
  Q  0.6645  11.79$  7.72$  6.47$
  Q  0.6645  13.27$  7.63$  6.54$
  Q  -1.3290  12.54$  7.95$  6.29$
  Q  0.6645  9.52$  14.45$  14.62$
  Q  0.6645  9.28$  15.5$  13.52$
  Q  -1.3290  9.31$  15.22$  14.33$
  Q  0.6645  6.15$  18.31$  12.93$
  Q  0.6645  5.1$  19.3$  12.48$
  Q  -1.3290  5.7$  19.02$  12.98$
  Q  0.6645  10.5$  15.91$  3.32$
  Q  0.6645  10.87$  14.58$  2.68$
  Q  -1.3290  10.7$  15.11$  3.32$
  Q  0.6645  18.09$  9.25$  18.86$
  Q  0.6645  18.74$  10.62$  18.9$
  Q  -1.3290  18.12$  10.08$  19.04$
  Q  0.6645  5.71$  17.83$  8.79$
  Q  0.6645  5.68$  17.58$  10.43$
  Q  -1.3290  5.54$  17.98$  9.65$
  Q  0.6645  14.33$  3.68$  13.26$
  Q  0.6645  13.15$  3.07$  12.77$
  Q  -1.3290  13.93$  3.31$  12.71$
  Q  0.6645  3.58$  12.79$  14.13$
  Q  0.6645  4.74$  12.69$  15.04$
  Q  -1.3290  4.16$  12.38$  14.53$
  Q  0.6645  15.23$  17.26$  16.23$
  Q  0.6645  16.64$  16.99$  16.44$
  Q  -1.3290  15.84$  16.96$  16.67$
  Q  0.6645  17.83$  9.11$  15.05$
  Q  0.6645  17.57$  8.72$  16.44$
  Q  -1.3290  17.36$  8.84$  15.63$
  Q  0.6645  15.99$  7.74$  19.36$
  Q  0.6645  16.93$  6.43$  19.75$
  Q  -1.3290  16.56$  7.25$  19.79$
  Q  0.6645  3.81$  10.99$  4.75$
  Q  0.6645  5.27$  10.43$  4.83$
  Q  -1.3290  4.61$  10.88$  4.48$
  Q  0.6645  0.53$  10.41$  12.41$
  Q  0.6645  1.18$  11.74$  12.04$
  Q  -1.3290  0.55$  11.22$  12.18$
  Q  0.6645  15.79$  1.83$  12.32$
  Q  0.6645  17.08$  1.1$  12.65$
  Q  -1.3290  16.53$  1.54$  12.16$
  Q  0.6645  10.8$  1.53$  11.19$
  Q  0.6645  10.32$  1.08$  9.81$
  Q  -1.3290  10.35$  1.07$  10.66$
  Q  0.6645  16.84$  6.8$  15.65$
  Q  0.6645  17.14$  5.86$  16.84$
  Q  -1.3290  16.8$  6.05$  16.08$
  Q  0.6645  14.85$  6.25$  20.99$
  Q  0.6645  13.65$  6.98$  20.35$
  Q  -1.3290  14.06$  6.31$  20.69$
  Q  0.6645  16.47$  15.83$  10.17$
  Q  0.6645  17.22$  14.45$  10.13$
  Q  -1.3290  16.69$  15.04$  10.42$
*
