! NoMOPrint PrintBasis #MINIPRINT SMALLPRINT LARGEPRINT
! ALLPOP XYZFILE
#! BP86 3-21G   TightSCF
! ENGRAD
! B3LYP NormalPNO PModel #DecontractAux
#! VerySlowConv 
 %maxcore 5000
 %scf  maxiter   500  end 

%pal
    nprocs 32
end

%basis
    NewGTO O    # New basis for oxygen
        "aug-cc-pVTZ"
    end
    NewGTO C    # New basis for carbon
        "aug-cc-pVTZ"
    end
    NewGTO H    # New basis for hydrogen
        "cc-pVTZ"
    end
end

* xyz 0   1
  C  11.36  9  10.04  #1
  H  10.6  8.21  10.26  #2
  H  12.26  8.86  10.58  #3
  C  10.9  10.48  10.19  #4
  H  11.73  11.07  9.82  #5
  H  10.09  10.63  9.46  #6
  C  10.51  10.97  11.57  #7
  H  10.78  10.3  12.43  #8
  H  9.45  10.85  11.62  #9
  C  10.82  12.45  11.74  #10
  H  10.14  12.98  11  #11
  H  11.8  12.72  11.46  #12
  O  10.49  12.95  13.06  #13
  H  10.98  13.79  13.14  #14
  O  11.6  8.84  8.66  #15
  H  11.78  7.92  8.57  #16
  O  12.41  15.4  12.39  #17
  H  13.24  15.8  12.6  #18
  H  12.6  14.74  11.73  #19
  O  13.72  11.43  12.39  #20
  H  13.86  12.17  12.99  #21
  H  14.62  11.2  12.02  #22
  O  8.02  10.84  7  #23
  H  8.97  10.52  6.89  #24
  H  8.09  11.8  7.13  #25
  O  7.36  8.98  11.96  #26
  H  7.05  9.79  12.39  #27
  H  7.6  8.37  12.66  #28
  O  8.5  12.23  14.76  #29
  H  8.81  11.51  15.32  #30
  H  9.19  12.34  14.04  #31
  O  6.3  10.35  4.99  #32
  H  6.53  9.77  4.28  #33
  H  7.03  10.43  5.64  #34
  O  8.78  15.53  10.27  #35
  H  9.6  15.19  9.86  #36
  H  8.29  14.87  10.75  #37
  O  7.3  13.55  10.65  #38
  H  6.54  13.61  9.93  #39
  H  7.02  12.72  11.08  #40
  O  10.22  5.59  12.44  #41
  H  11.14  5.91  12.55  #42
  H  10  5.57  11.48  #43
  O  4.77  7.81  11.19  #44
  H  5.68  8.21  11.39  #45
  H  4.45  8.19  10.33  #46
  O  15.35  16.52  13.45  #47
  H  16.28  16.19  13.4  #48
  H  15.11  16.02  14.29  #49
  O  9.54  10.11  16.74  #50
  H  10.18  10.55  17.33  #51
  H  9.96  9.54  16.08  #52
  O  14.04  12.55  15.23  #53
  H  13.47  12.05  15.83  #54
  H  14.95  12.21  15.22  #55
  O  7.23  11.49  17.91  #56
  H  7.7  11  17.18  #57
  H  7.97  11.77  18.46  #58
  O  8.75  13.48  6.8  #59
  H  8.03  14.07  6.84  #60
  H  8.89  13.31  5.87  #61
  O  11.26  15.62  15.16  #62
  H  12.17  15.36  15.03  #63
  H  11.1  15.87  14.26  #64
  O  6.54  11.45  12.76  #65
  H  7.18  12.03  13.27  #66
  H  5.73  11.49  13.29  #67
  O  12.87  14.18  9.81  #68
  H  13.59  13.53  9.66  #69
  H  12.23  13.97  9.14  #70
  O  13.06  8.97  13.75  #71
  H  13.16  9.81  13.27  #72
  H  13.82  8.9  14.34  #73
  O  12.15  17.28  10.28  #74
  H  12.31  16.58  10.97  #75
  H  12.71  18.07  10.51  #76
  O  10.54  8.18  15.22  #77
  H  11.23  8.55  14.64  #78
  H  10.57  7.24  15.2  #79
  O  7  9.1  9.05  #80
  H  7.41  9  9.93  #81
  H  7.56  9.78  8.61  #82
  O  15.32  12.69  9.29  #83
  H  16.06  13.28  9.06  #84
  H  15.7  12  9.94  #85
  O  12.2  6.16  8.25  #86
  H  11.92  6.24  7.36  #87
  H  11.47  5.73  8.7  #88
  O  10.56  17.69  13.06  #89
  H  9.72  17.84  12.68  #90
  H  11.18  17.6  12.29  #91
  O  8.34  12.47  4.13  #92
  H  7.63  13.02  3.77  #93
  H  7.93  11.75  4.62  #94
  O  7.46  14.93  14.97  #95
  H  7.6  15.41  15.75  #96
  H  8.09  14.29  14.92  #97
  O  8.15  7.12  13.63  #98
  H  8.81  6.61  13.18  #99
  H  8.59  7.65  14.28  #100
  O  9.88  5.42  9.6  #101
  H  9.93  4.47  9.37  #102
  H  9.19  5.88  9.05  #103
  O  16.6  11.25  11.47  #104
  H  17.13  11.74  12.13  #105
  H  16.61  10.3  11.77  #106
  O  8.87  9.07  4.51  #107
  H  9.59  9.28  5.09  #108
  H  9.08  9.28  3.6  #109
  O  10.93  10.28  6.58  #110
  H  11.4  11.12  6.66  #111
  H  11.4  9.79  7.32  #112
  Q  0.6645  19.95$  12.17$  10.17$
  Q  0.6645  19.7$  12.59$  11.6$
  Q  -1.3290  20.18$  12.52$  10.9$
  Q  0.6645  4.39$  13.68$  8.88$
  Q  0.6645  5.25$  13.54$  7.59$
  Q  -1.3290  4.97$  13.34$  8.4$
  Q  0.6645  18.9$  6.37$  7.06$
  Q  0.6645  18.4$  6.87$  8.44$
  Q  -1.3290  18.77$  6.33$  7.89$
  Q  0.6645  13.91$  16.43$  3.74$
  Q  0.6645  13.25$  17.84$  3.79$
  Q  -1.3290  13.82$  17.24$  3.55$
  Q  0.6645  16.38$  10.11$  18.56$
  Q  0.6645  15.33$  9.22$  18.13$
  Q  -1.3290  15.62$  9.92$  18.33$
  Q  0.6645  18.08$  11.22$  9.89$
  Q  0.6645  19.08$  10.57$  8.86$
  Q  -1.3290  18.54$  11.17$  9.16$
  Q  0.6645  15.87$  4.34$  15.7$
  Q  0.6645  16.43$  4.98$  16.96$
  Q  -1.3290  15.94$  4.48$  16.54$
  Q  0.6645  10.32$  14.92$  20.43$
  Q  0.6645  10.34$  16.37$  19.99$
  Q  -1.3290  10.01$  15.6$  20.07$
  Q  0.6645  12.23$  1.09$  6.44$
  Q  0.6645  11.51$  -0.26$  6.83$
  Q  -1.3290  11.77$  0.38$  6.34$
  Q  0.6645  8.64$  6.88$  2$
  Q  0.6645  10.15$  6.74$  1.73$
  Q  -1.3290  9.38$  7.05$  1.59$
  Q  0.6645  11.94$  13.6$  6.76$
  Q  0.6645  10.71$  13.36$  7.55$
  Q  -1.3290  11.52$  13.22$  7.31$
  Q  0.6645  6.26$  2.97$  16.37$
  Q  0.6645  6.12$  4.48$  16.71$
  Q  -1.3290  5.85$  3.71$  16.6$
  Q  0.6645  13.46$  11.44$  4.57$
  Q  0.6645  12.38$  12.48$  4.9$
  Q  -1.3290  12.69$  11.75$  4.59$
  Q  0.6645  8.75$  2.85$  7.43$
  Q  0.6645  9.94$  3$  6.67$
  Q  -1.3290  9.51$  2.67$  7.25$
  Q  0.6645  14.01$  3.92$  17.55$
  Q  0.6645  12.61$  3.57$  18.28$
  Q  -1.3290  13.47$  3.53$  18.12$
  Q  0.6645  17.58$  11.78$  2.95$
  Q  0.6645  18.33$  11.91$  1.68$
  Q  -1.3290  17.7$  11.67$  2.15$
  Q  0.6645  13.39$  15.83$  19.42$
  Q  0.6645  12.76$  14.86$  18.49$
  Q  -1.3290  13.42$  15.17$  18.89$
  Q  0.6645  16.74$  3.01$  4.7$
  Q  0.6645  17.8$  1.86$  4.35$
  Q  -1.3290  17.05$  2.29$  4.32$
  Q  0.6645  8.81$  8.63$  17.84$
  Q  0.6645  8.39$  7.72$  18.89$
  Q  -1.3290  8.61$  7.91$  18.15$
  Q  0.6645  5.47$  14.04$  3.05$
  Q  0.6645  5.52$  12.55$  3.34$
  Q  -1.3290  5.64$  13.36$  3.52$
  Q  0.6645  7.02$  16.48$  20.79$
  Q  0.6645  8.09$  15.83$  19.97$
  Q  -1.3290  7.3$  15.92$  20.22$
  Q  0.6645  16.71$  3.77$  7.4$
  Q  0.6645  17.81$  4.61$  7.98$
  Q  -1.3290  17.4$  3.9$  7.85$
  Q  0.6645  7.56$  7.61$  7.81$
  Q  0.6645  7.32$  6.32$  6.95$
  Q  -1.3290  7.74$  6.93$  7.31$
  Q  0.6645  5.55$  17.63$  9.46$
  Q  0.6645  6.58$  17.97$  8.36$
  Q  -1.3290  5.82$  17.98$  8.75$
  Q  0.6645  16.7$  15.39$  4.7$
  Q  0.6645  18.11$  15.93$  4.75$
  Q  -1.3290  17.44$  15.56$  4.4$
  Q  0.6645  17.88$  13.08$  8$
  Q  0.6645  16.87$  13.85$  7.04$
  Q  -1.3290  17.52$  13.78$  7.62$
  Q  0.6645  18.18$  15.57$  11.99$
  Q  0.6645  18.99$  15.53$  13.35$
  Q  -1.3290  18.31$  15.56$  12.86$
  Q  0.6645  7.2$  6.46$  15.48$
  Q  0.6645  7.46$  6.57$  17$
  Q  -1.3290  7.23$  6.19$  16.3$
  Q  0.6645  10.21$  2.33$  8.87$
  Q  0.6645  9.66$  2.43$  10.4$
  Q  -1.3290  10.21$  2.55$  9.73$
  Q  0.6645  1.87$  6.06$  15.12$
  Q  0.6645  3$  7.05$  15.05$
  Q  -1.3290  2.6$  6.38$  15.37$
  Q  0.6645  19.55$  7.67$  12.47$
  Q  0.6645  20.83$  8.57$  12.49$
  Q  -1.3290  19.99$  8.37$  12.34$
  Q  0.6645  6.16$  8.25$  2.35$
  Q  0.6645  6.05$  9.22$  1.35$
  Q  -1.3290  5.91$  8.96$  2.09$
  Q  0.6645  13.25$  14.4$  1.76$
  Q  0.6645  13.86$  13.08$  2.43$
  Q  -1.3290  13.42$  13.83$  2.39$
  Q  0.6645  11.99$  6.93$  18.41$
  Q  0.6645  10.46$  6.99$  18.36$
  Q  -1.3290  11.22$  6.66$  18.23$
  Q  0.6645  5.48$  10.03$  8.87$
  Q  0.6645  4.84$  11.39$  9.13$
  Q  -1.3290  4.84$  10.53$  9.03$
  Q  0.6645  7.79$  7.05$  4.06$
  Q  0.6645  6.76$  6.13$  3.67$
  Q  -1.3290  7.24$  6.77$  3.52$
  Q  0.6645  19.01$  10.87$  5.38$
  Q  0.6645  18.18$  9.85$  4.68$
  Q  -1.3290  18.3$  10.53$  5.12$
  Q  0.6645  18.2$  18.9$  10.71$
  Q  0.6645  18.19$  17.56$  10.05$
  Q  -1.3290  18.54$  18.21$  10.42$
  Q  0.6645  17.61$  15.48$  9.27$
  Q  0.6645  16.19$  15.97$  9.59$
  Q  -1.3290  17$  15.71$  9.79$
  Q  0.6645  10.54$  1.82$  2.14$
  Q  0.6645  9.3$  2.74$  2.39$
  Q  -1.3290  9.98$  2.44$  1.98$
  Q  0.6645  1.65$  9.62$  15.35$
  Q  0.6645  2.9$  9.88$  14.66$
  Q  -1.3290  2.35$  10.04$  15.26$
  Q  0.6645  6.66$  17.36$  16.73$
  Q  0.6645  6.95$  16.56$  18.17$
  Q  -1.3290  7.1$  16.93$  17.34$
  Q  0.6645  13.11$  2.31$  11.68$
  Q  0.6645  12.02$  2.48$  10.53$
  Q  -1.3290  12.81$  2.3$  10.88$
  Q  0.6645  12.82$  19.84$  11.72$
  Q  0.6645  14.18$  19.28$  12.27$
  Q  -1.3290  13.52$  19.35$  11.71$
  Q  0.6645  13.97$  10.68$  21$
  Q  0.6645  12.82$  9.72$  21.46$
  Q  -1.3290  13.62$  9.93$  21.18$
  Q  0.6645  2.71$  15.01$  10.11$
  Q  0.6645  2.05$  13.74$  10.11$
  Q  -1.3290  2.63$  14.27$  9.83$
  Q  0.6645  9.86$  3.69$  17.82$
  Q  0.6645  10.62$  4.75$  18.76$
  Q  -1.3290  10.42$  3.97$  18.41$
  Q  0.6645  15.8$  5.91$  2.84$
  Q  0.6645  15.1$  7.31$  3.04$
  Q  -1.3290  15.66$  6.66$  3.17$
  Q  0.6645  2.05$  9.83$  5.52$
  Q  0.6645  1.12$  8.85$  4.88$
  Q  -1.3290  1.3$  9.55$  5.28$
  Q  0.6645  17.51$  7.96$  3.14$
  Q  0.6645  17.37$  9.32$  2.53$
  Q  -1.3290  17.78$  8.68$  2.88$
  Q  0.6645  14.42$  12.96$  20.08$
  Q  0.6645  14.5$  12.62$  21.75$
  Q  -1.3290  14.14$  12.72$  20.9$
  Q  0.6645  15.54$  6.85$  14.46$
  Q  0.6645  16.21$  8.23$  14.28$
  Q  -1.3290  15.64$  7.67$  14.59$
  Q  0.6645  15.54$  5$  5.99$
  Q  0.6645  14.82$  3.7$  5.97$
  Q  -1.3290  15.48$  4.22$  5.82$
  Q  0.6645  6.34$  14.28$  16.62$
  Q  0.6645  6.42$  13.3$  17.69$
  Q  -1.3290  6$  13.8$  17.16$
  Q  0.6645  6.96$  4.32$  5.17$
  Q  0.6645  5.56$  4.8$  5.64$
  Q  -1.3290  6.44$  4.78$  5.64$
  Q  0.6645  13.51$  8.19$  19.94$
  Q  0.6645  14.14$  7.19$  18.88$
  Q  -1.3290  13.54$  7.52$  19.41$
  Q  0.6645  5.83$  3.67$  11.07$
  Q  0.6645  5.12$  2.22$  10.84$
  Q  -1.3290  5.76$  2.83$  10.85$
  Q  0.6645  11.27$  4.4$  15.54$
  Q  0.6645  11.55$  5.73$  16.45$
  Q  -1.3290  11.49$  5.22$  15.75$
  Q  0.6645  17.32$  5.24$  11.24$
  Q  0.6645  17.17$  6.8$  11.02$
  Q  -1.3290  17.2$  6.07$  11.44$
  Q  0.6645  8.75$  18.61$  17.02$
  Q  0.6645  10.28$  18.37$  17.42$
  Q  -1.3290  9.56$  18.82$  17.26$
  Q  0.6645  4.76$  18.2$  16.13$
  Q  0.6645  4.13$  17.31$  15.08$
  Q  -1.3290  4.77$  17.59$  15.53$
  Q  0.6645  14.54$  2.86$  13.61$
  Q  0.6645  14.17$  1.38$  13.49$
  Q  -1.3290  14.03$  2.21$  13.45$
  Q  0.6645  4.22$  8.03$  5.96$
  Q  0.6645  3.84$  7.64$  7.33$
  Q  -1.3290  4.06$  7.49$  6.54$
  Q  0.6645  10.78$  19.03$  14.2$
  Q  0.6645  10.31$  19.83$  15.5$
  Q  -1.3290  10.64$  19.73$  14.72$
  Q  0.6645  7.55$  0.98$  16.29$
  Q  0.6645  7.53$  1.28$  14.86$
  Q  -1.3290  7.21$  1.33$  15.66$
  Q  0.6645  5.43$  5.94$  11.8$
  Q  0.6645  5.35$  4.82$  12.85$
  Q  -1.3290  5.44$  5.16$  12.07$
  Q  0.6645  3.8$  14.78$  12.96$
  Q  0.6645  2.49$  14.05$  12.48$
  Q  -1.3290  2.97$  14.72$  12.72$
  Q  0.6645  12.96$  7.83$  2.19$
  Q  0.6645  13.03$  8.52$  3.68$
  Q  -1.3290  13.25$  8.37$  2.84$
  Q  0.6645  7.27$  3.26$  3.25$
  Q  0.6645  8.14$  2.29$  4.18$
  Q  -1.3290  7.94$  3.05$  3.76$
  Q  0.6645  7.29$  20.61$  12.88$
  Q  0.6645  8.65$  20.21$  13.64$
  Q  -1.3290  8$  20.69$  13.36$
  Q  0.6645  4.26$  8.04$  13.05$
  Q  0.6645  4.82$  8.47$  14.38$
  Q  -1.3290  4.23$  8.2$  13.87$
  Q  0.6645  1.2$  8.83$  11.52$
  Q  0.6645  1.02$  7.22$  11.71$
  Q  -1.3290  0.98$  8.05$  11.94$
  Q  0.6645  16.93$  3.4$  2.23$
  Q  0.6645  15.5$  3.49$  1.69$
  Q  -1.3290  16.21$  3.81$  2.06$
  Q  0.6645  4.13$  17.54$  11.33$
  Q  0.6645  5.28$  16.55$  11.62$
  Q  -1.3290  4.66$  16.9$  11.16$
  Q  0.6645  13.48$  4.91$  8.86$
  Q  0.6645  13.45$  3.46$  9.37$
  Q  -1.3290  13.68$  4.11$  8.85$
  Q  0.6645  11.4$  14.96$  4.92$
  Q  0.6645  12.55$  14.39$  4.2$
  Q  -1.3290  12.02$  14.44$  4.82$
  Q  0.6645  4.56$  10.46$  5.91$
  Q  0.6645  3.84$  10.17$  7.3$
  Q  -1.3290  3.89$  10.31$  6.45$
  Q  0.6645  8.13$  16.46$  6.04$
  Q  0.6645  7.61$  15.55$  4.99$
  Q  -1.3290  8.04$  16.2$  5.27$
  Q  0.6645  15.21$  6.8$  4.91$
  Q  0.6645  14.37$  7.26$  6.08$
  Q  -1.3290  15.08$  7$  5.69$
  Q  0.6645  19.05$  6.47$  4.43$
  Q  0.6645  20.14$  7.35$  5$
  Q  -1.3290  19.37$  7.01$  4.98$
  Q  0.6645  9.81$  16.62$  5.11$
  Q  0.6645  10.94$  17.48$  5.11$
  Q  -1.3290  10.59$  16.79$  5.31$
  Q  0.6645  17.18$  13.65$  17.3$
  Q  0.6645  18.59$  13.94$  16.81$
  Q  -1.3290  17.89$  13.47$  16.95$
  Q  0.6645  9.63$  6.85$  6.2$
  Q  0.6645  10.56$  5.68$  5.8$
  Q  -1.3290  10.37$  6.47$  6.02$
  Q  0.6645  8.44$  3.2$  15.72$
  Q  0.6645  8.51$  4.59$  16.29$
  Q  -1.3290  8.64$  3.75$  16.28$
  Q  0.6645  7.05$  20.64$  6.24$
  Q  0.6645  7.43$  19.51$  5.27$
  Q  -1.3290  7.54$  20.04$  5.92$
  Q  0.6645  11.86$  19.19$  7.48$
  Q  0.6645  13.42$  19.17$  7.92$
  Q  -1.3290  12.71$  19.31$  7.42$
  Q  0.6645  20.85$  9.07$  10.16$
  Q  0.6645  21.03$  8.95$  8.63$
  Q  -1.3290  20.64$  9.19$  9.36$
  Q  0.6645  13.87$  14.21$  15.63$
  Q  0.6645  14.11$  15.25$  16.64$
  Q  -1.3290  14.04$  14.99$  15.87$
  Q  0.6645  18.9$  8.18$  15.85$
  Q  0.6645  19.03$  7.03$  16.7$
  Q  -1.3290  19.2$  7.42$  16.03$
  Q  0.6645  7.24$  17.6$  3.92$
  Q  0.6645  6.04$  18.05$  4.71$
  Q  -1.3290  6.61$  18.11$  4.12$
  Q  0.6645  14.74$  18.22$  8.98$
  Q  0.6645  14.57$  19.42$  9.95$
  Q  -1.3290  14.77$  19.04$  9.23$
  Q  0.6645  5.34$  12.53$  15.77$
  Q  0.6645  4.11$  11.79$  15.49$
  Q  -1.3290  4.92$  11.95$  15.38$
  Q  0.6645  14.2$  16.96$  5.75$
  Q  0.6645  12.86$  16.22$  5.68$
  Q  -1.3290  13.66$  16.36$  5.94$
  Q  0.6645  10.58$  11.75$  19.66$
  Q  0.6645  10.8$  12.51$  18.47$
  Q  -1.3290  10.55$  11.85$  18.84$
  Q  0.6645  13.88$  11.25$  17.7$
  Q  0.6645  12.31$  11.09$  18.1$
  Q  -1.3290  13.01$  11.2$  17.58$
  Q  0.6645  14.46$  19.45$  6.23$
  Q  0.6645  15.23$  19.38$  4.89$
  Q  -1.3290  15.01$  19.13$  5.67$
  Q  0.6645  17.67$  3.17$  10$
  Q  0.6645  18.31$  3.14$  11.25$
  Q  -1.3290  17.65$  3.17$  10.8$
  Q  0.6645  11.61$  7.69$  5.31$
  Q  0.6645  12.27$  8.96$  5.73$
  Q  -1.3290  12.3$  8.18$  5.44$
  Q  0.6645  15.01$  7.39$  16.67$
  Q  0.6645  16.15$  7.04$  17.69$
  Q  -1.3290  15.36$  7.25$  17.46$
  Q  0.6645  3$  6.84$  9.16$
  Q  0.6645  2.3$  8.21$  8.66$
  Q  -1.3290  2.98$  7.68$  8.94$
  Q  0.6645  8.42$  17.53$  10.71$
  Q  0.6645  7.52$  18.01$  11.92$
  Q  -1.3290  8.19$  18.04$  11.37$
  Q  0.6645  3.46$  3.8$  10.14$
  Q  0.6645  3.85$  5.1$  10.95$
  Q  -1.3290  3.37$  4.6$  10.44$
  Q  0.6645  3.59$  4.87$  14.53$
  Q  0.6645  4.75$  3.87$  15.05$
  Q  -1.3290  4.15$  4.22$  14.48$
  Q  0.6645  5.31$  18.38$  12.59$
  Q  0.6645  6.06$  18.32$  13.93$
  Q  -1.3290  5.99$  18.36$  13.1$
  Q  0.6645  6.44$  3.92$  7.44$
  Q  0.6645  6.16$  3.12$  8.84$
  Q  -1.3290  6.46$  3.24$  8.03$
  Q  0.6645  19.04$  6.34$  14.45$
  Q  0.6645  18.15$  6.25$  13.17$
  Q  -1.3290  18.84$  6.11$  13.67$
  Q  0.6645  15.46$  0.88$  14.74$
  Q  0.6645  15.49$  -0.37$  13.65$
  Q  -1.3290  15.79$  0.34$  14.08$
  Q  0.6645  17.53$  9.49$  6.72$
  Q  0.6645  16.33$  8.73$  6.57$
  Q  -1.3290  16.86$  9.13$  7.02$
  Q  0.6645  11.29$  21.45$  12.5$
  Q  0.6645  11.66$  22.42$  11.34$
  Q  -1.3290  11.51$  21.67$  11.73$
  Q  0.6645  4.7$  18.36$  6.99$
  Q  0.6645  3.62$  18.88$  6.08$
  Q  -1.3290  4.31$  18.45$  6.26$
  Q  0.6645  1.62$  11.64$  11.56$
  Q  0.6645  0.28$  12.37$  11.49$
  Q  -1.3290  1.12$  12.3$  11.67$
  Q  0.6645  15.72$  18.35$  13.45$
  Q  0.6645  16.48$  19.61$  12.76$
  Q  -1.3290  15.93$  19.18$  13.29$
  Q  0.6645  15.14$  10.16$  7.48$
  Q  0.6645  14.7$  11.51$  7.92$
  Q  -1.3290  14.65$  10.83$  7.44$
  Q  0.6645  6.21$  20.22$  15.97$
  Q  0.6645  7.27$  19.87$  14.99$
  Q  -1.3290  6.9$  19.83$  15.72$
  Q  0.6645  5.75$  13.95$  5.54$
  Q  0.6645  5.32$  15.24$  6.26$
  Q  -1.3290  5.81$  14.55$  6.1$
  Q  0.6645  2.71$  9.48$  10.43$
  Q  0.6645  1.57$  10.44$  9.97$
  Q  -1.3290  2.01$  9.97$  10.51$
  Q  0.6645  4.9$  9.51$  18.87$
  Q  0.6645  5.86$  10.72$  18.8$
  Q  -1.3290  5.29$  10.19$  19.18$
  Q  0.6645  6.14$  14.81$  13.71$
  Q  0.6645  6.18$  14.26$  12.32$
  Q  -1.3290  5.81$  14.63$  12.97$
  Q  0.6645  9.32$  4.03$  13.4$
  Q  0.6645  8.67$  2.75$  13.01$
  Q  -1.3290  9.07$  3.26$  13.53$
  Q  0.6645  10.63$  8.71$  0.58$
  Q  0.6645  11.13$  10$  1.13$
  Q  -1.3290  11.16$  9.34$  0.63$
  Q  0.6645  11.28$  12.73$  22.4$
  Q  0.6645  12.32$  12.96$  21.24$
  Q  -1.3290  11.58$  13.06$  21.64$
  Q  0.6645  17.97$  13.5$  13.2$
  Q  0.6645  18.92$  12.39$  13.75$
  Q  -1.3290  18.24$  12.73$  13.34$
  Q  0.6645  19.4$  4.09$  4.95$
  Q  0.6645  19.04$  3.53$  6.35$
  Q  -1.3290  19.52$  3.63$  5.65$
  Q  0.6645  7.34$  21.2$  9.21$
  Q  0.6645  6.16$  20.17$  8.96$
  Q  -1.3290  6.51$  20.93$  9.09$
  Q  0.6645  7.29$  1.71$  11.72$
  Q  0.6645  8.38$  0.75$  12.06$
  Q  -1.3290  8.08$  1.48$  11.82$
  Q  0.6645  12.55$  0.62$  3.42$
  Q  0.6645  13.45$  0.94$  4.51$
  Q  -1.3290  13.24$  0.92$  3.73$
  Q  0.6645  7.26$  12.34$  20.65$
  Q  0.6645  7.76$  10.98$  21.11$
  Q  -1.3290  7.83$  11.8$  20.92$
  Q  0.6645  5.75$  21.52$  10.75$
  Q  0.6645  5.27$  20.61$  11.87$
  Q  -1.3290  5.59$  21.3$  11.55$
  Q  0.6645  12.46$  20.81$  14.34$
  Q  0.6645  13.75$  21.4$  15.08$
  Q  -1.3290  13.26$  21.14$  14.43$
  Q  0.6645  9.75$  0.87$  5.43$
  Q  0.6645  8.61$  -0.03$  4.75$
  Q  -1.3290  9.25$  0.56$  4.79$
  Q  0.6645  13.88$  4.45$  4.35$
  Q  0.6645  13.31$  3.73$  3.09$
  Q  -1.3290  13.34$  4.31$  3.69$
  Q  0.6645  16.04$  1.69$  10.65$
  Q  0.6645  14.9$  0.77$  10.32$
  Q  -1.3290  15.7$  0.94$  10.47$
  Q  0.6645  12.65$  4.19$  -0.04$
  Q  0.6645  11.51$  3.85$  0.85$
  Q  -1.3290  12.03$  3.7$  0.21$
  Q  0.6645  2.17$  16.16$  14.24$
  Q  0.6645  1.86$  17.51$  14.71$
  Q  -1.3290  2.14$  16.75$  14.82$
  Q  0.6645  11.98$  20.46$  17.89$
  Q  0.6645  12.81$  19.18$  17.62$
  Q  -1.3290  12.67$  19.96$  17.88$
  Q  0.6645  15.76$  4.96$  12.68$
  Q  0.6645  14.42$  5.42$  13.35$
  Q  -1.3290  15.18$  5.04$  13.32$
  Q  0.6645  15.09$  11.21$  5.71$
  Q  0.6645  16.32$  11.15$  5$
  Q  -1.3290  15.58$  11.41$  5.1$
  Q  0.6645  17.17$  12.19$  15.87$
  Q  0.6645  16.25$  10.99$  16.21$
  Q  -1.3290  16.66$  11.5$  15.7$
  Q  0.6645  9.95$  20.16$  8.37$
  Q  0.6645  9.37$  20.24$  7.08$
  Q  -1.3290  9.96$  20.01$  7.59$
  Q  0.6645  11.39$  11.5$  2.79$
  Q  0.6645  9.98$  12.18$  3.12$
  Q  -1.3290  10.6$  11.85$  2.6$
  Q  0.6645  10.11$  20.56$  10.45$
  Q  0.6645  8.7$  19.96$  10.49$
  Q  -1.3290  9.31$  20.42$  10.17$
  Q  0.6645  2.2$  12.13$  8.46$
  Q  0.6645  0.68$  12.05$  8.19$
  Q  -1.3290  1.45$  11.77$  8.43$
  Q  0.6645  3.17$  9$  17.27$
  Q  0.6645  3.8$  7.74$  17.08$
  Q  -1.3290  3.82$  8.52$  17.29$
  Q  0.6645  19.81$  16.62$  6.54$
  Q  0.6645  18.84$  15.57$  7.01$
  Q  -1.3290  19.08$  16.24$  6.56$
  Q  0.6645  11.45$  3.94$  4.68$
  Q  0.6645  9.96$  3.81$  4.49$
  Q  -1.3290  10.66$  4.02$  4.89$
  Q  0.6645  8.45$  16.49$  8.6$
  Q  0.6645  9.05$  17.86$  8.12$
  Q  -1.3290  8.48$  17.23$  8.12$
  Q  0.6645  12.34$  5.72$  2.57$
  Q  0.6645  12.78$  6.08$  1.14$
  Q  -1.3290  12.28$  6.08$  1.81$
  Q  0.6645  20.35$  3.08$  13.03$
  Q  0.6645  19.48$  4.35$  13.2$
  Q  -1.3290  19.65$  3.51$  12.99$
  Q  0.6645  11.57$  16.65$  16.59$
  Q  0.6645  11.86$  17.11$  18.07$
  Q  -1.3290  11.73$  17.18$  17.22$
  Q  0.6645  13.94$  15.99$  8.91$
  Q  0.6645  14.48$  16.4$  7.61$
  Q  -1.3290  14.47$  16.41$  8.44$
  Q  0.6645  12.45$  15.01$  21.52$
  Q  0.6645  13.96$  15.25$  21.62$
  Q  -1.3290  13.15$  15.45$  21.65$
  Q  0.6645  3.08$  12.6$  6.39$
  Q  0.6645  2.79$  13.57$  5.11$
  Q  -1.3290  2.87$  13.34$  5.97$
  Q  0.6645  15.31$  14.26$  18.68$
  Q  0.6645  16.49$  13.43$  19.28$
  Q  -1.3290  15.82$  13.57$  18.76$
  Q  0.6645  10.86$  16.12$  7.16$
  Q  0.6645  11.32$  16.59$  8.65$
  Q  -1.3290  10.88$  16.09$  8.04$
  Q  0.6645  6.45$  1.71$  6.73$
  Q  0.6645  5.78$  1.08$  5.56$
  Q  -1.3290  6.37$  1.14$  6.12$
  Q  0.6645  16.5$  18.89$  16.75$
  Q  0.6645  16.19$  19.48$  15.44$
  Q  -1.3290  16.33$  19.51$  16.25$
  Q  0.6645  2.7$  8.5$  3.47$
  Q  0.6645  3.95$  8.5$  2.86$
  Q  -1.3290  3.46$  8.32$  3.52$
  Q  0.6645  2.82$  14.55$  18.78$
  Q  0.6645  4.19$  14.01$  18.25$
  Q  -1.3290  3.42$  13.98$  18.64$
  Q  0.6645  17.34$  8.59$  8.79$
  Q  0.6645  18.59$  8.6$  9.73$
  Q  -1.3290  17.81$  8.37$  9.45$
  Q  0.6645  14.75$  14.46$  6.03$
  Q  0.6645  15.4$  13.26$  5.38$
  Q  -1.3290  15.39$  13.95$  5.84$
  Q  0.6645  1.12$  17.14$  11.26$
  Q  0.6645  2.35$  16.11$  11.56$
  Q  -1.3290  1.65$  16.44$  11.12$
  Q  0.6645  13.05$  7.22$  13.49$
  Q  0.6645  12.42$  5.96$  14.2$
  Q  -1.3290  12.82$  6.38$  13.53$
  Q  0.6645  5.61$  9.12$  16.21$
  Q  0.6645  6.12$  10.25$  15.46$
  Q  -1.3290  6.06$  9.46$  15.62$
  Q  0.6645  10.95$  14.35$  16.94$
  Q  0.6645  10.48$  14.77$  18.36$
  Q  -1.3290  10.99$  14.4$  17.79$
  Q  0.6645  11.98$  19.48$  5.34$
  Q  0.6645  11.56$  19.67$  3.88$
  Q  -1.3290  11.77$  19.24$  4.56$
  Q  0.6645  13.52$  3.01$  7.34$
  Q  0.6645  13.99$  1.83$  6.4$
  Q  -1.3290  13.5$  2.47$  6.66$
  Q  0.6645  15.73$  11.38$  1.84$
  Q  0.6645  14.28$  10.66$  1.52$
  Q  -1.3290  14.87$  11.29$  1.69$
  Q  0.6645  6.07$  14.38$  20.76$
  Q  0.6645  4.83$  13.48$  20.54$
  Q  -1.3290  5.62$  13.65$  20.78$
  Q  0.6645  15.41$  0.21$  6.36$
  Q  0.6645  15.69$  1.05$  5.04$
  Q  -1.3290  15.22$  0.67$  5.68$
  Q  0.6645  8.15$  20.78$  17.24$
  Q  0.6645  9.31$  21.76$  17.61$
  Q  -1.3290  8.48$  21.49$  17.6$
  Q  0.6645  10.62$  2.6$  14.24$
  Q  0.6645  12.13$  2.45$  14.19$
  Q  -1.3290  11.38$  2.54$  14.56$
  Q  0.6645  11.41$  18.62$  20.01$
  Q  0.6645  12$  17.49$  20.86$
  Q  -1.3290  11.59$  17.81$  20.21$
  Q  0.6645  18.38$  9.32$  13.22$
  Q  0.6645  17.31$  10.2$  13.98$
  Q  -1.3290  17.6$  9.5$  13.55$
  Q  0.6645  11.01$  14.27$  2.69$
  Q  0.6645  9.67$  14.39$  1.99$
  Q  -1.3290  10.35$  14.69$  2.39$
*
