! NoMOPrint PrintBasis #MINIPRINT SMALLPRINT LARGEPRINT
! ALLPOP XYZFILE
#! BP86 3-21G   TightSCF
! ENGRAD
! B3LYP NormalPNO PModel #DecontractAux
#! VerySlowConv 
 %maxcore 5000
 %scf  maxiter   500  end 

%pal
    nprocs 32
end

%basis
    NewGTO O    # New basis for oxygen
        "aug-cc-pVTZ"
    end
    NewGTO C    # New basis for carbon
        "aug-cc-pVTZ"
    end
    NewGTO H    # New basis for hydrogen
        "cc-pVTZ"
    end
end

* xyz 0   1
  C  9.84  9.81  11.94  #1
  H  10.06  8.77  11.71  #2
  H  8.99  10.09  11.32  #3
  C  11.13  10.6  11.93  #4
  H  10.88  11.59  12.44  #5
  H  11.73  9.99  12.64  #6
  C  11.63  10.79  10.51  #7
  H  11.53  9.81  9.9  #8
  H  12.68  11.06  10.64  #9
  C  10.9  11.97  9.8  #10
  H  11.15  12.9  10.34  #11
  H  9.86  11.75  9.86  #12
  O  11.22  12.05  8.41  #13
  H  11.24  11.13  8.06  #14
  O  9.28  9.67  13.26  #15
  H  9.14  10.58  13.6  #16
  O  8.09  10.04  16.83  #17
  H  7.18  9.75  16.99  #18
  H  8  10.52  15.93  #19
  O  10.77  15.14  8.09  #20
  H  11.43  15.72  8.38  #21
  H  11.16  14.28  8.31  #22
  O  8.63  8.32  8.88  #23
  H  8.11  9.16  8.85  #24
  H  8.4  7.92  8.07  #25
  O  12.62  10.23  15.1  #26
  H  13.3  9.79  14.61  #27
  H  13.05  11  15.52  #28
  O  11.62  5.87  11.87  #29
  H  11.75  5.05  12.29  #30
  H  11.33  6.44  12.54  #31
  O  11.39  7.47  14.34  #32
  H  11.48  8.45  14.53  #33
  H  12.18  7.11  14.71  #34
  O  8.64  11.97  6.64  #35
  H  8.05  12.52  6.14  #36
  H  9.51  12.4  6.56  #37
  O  10.25  8.03  17.11  #38
  H  10.43  7.41  16.33  #39
  H  9.5  8.56  16.75  #40
  O  9.1  15.67  5.88  #41
  H  9.41  15.58  6.78  #42
  H  8.94  16.7  5.91  #43
  O  6.15  10.73  11.21  #44
  H  6.35  10.76  10.26  #45
  H  5.8  9.8  11.37  #46
  O  13.7  16.2  7.7  #47
  H  13.59  15.64  6.92  #48
  H  13.79  17.15  7.45  #49
  O  7.15  10.65  8.65  #50
  H  7.76  11.35  8.25  #51
  H  6.4  10.63  8.03  #52
  O  8.01  7.36  14.11  #53
  H  7.39  7.53  14.85  #54
  H  8.55  8.14  13.82  #55
  O  14.03  11.64  16.77  #56
  H  14.97  11.52  16.92  #57
  H  13.74  12.44  17.25  #58
  O  5.19  6.63  7.64  #59
  H  4.65  7.32  8.09  #60
  H  6.11  6.99  7.52  #61
  O  13.93  5.73  14.48  #62
  H  14.4  6.45  13.99  #63
  H  13.52  5.12  13.84  #64
  O  6.15  7.08  16.46  #65
  H  6  7.81  17.08  #66
  H  6.57  6.25  16.83  #67
  O  10.85  17.93  8.78  #68
  H  10.19  17.24  8.59  #69
  H  11.34  17.99  7.93  #70
  O  7.6  7.04  6.41  #71
  H  8.33  6.41  6.49  #72
  H  7.84  7.78  5.79  #73
  O  13.27  8.08  17.45  #74
  H  13.1  8.49  16.61  #75
  H  13.52  7.17  17.31  #76
  O  8.39  13.94  9.57  #77
  H  9.2  14.24  9.13  #78
  H  7.68  13.76  8.91  #79
  O  11.19  9.13  7.6  #80
  H  12.02  8.96  8.03  #81
  H  10.47  8.84  8.16  #82
  O  9.1  12.28  18.13  #83
  H  8.63  13  17.66  #84
  H  8.65  11.48  17.74  #85
  O  14.87  8.45  14  #86
  H  15.78  8.56  14.34  #87
  H  14.87  9.15  13.33  #88
  O  5.6  9.69  17.58  #89
  H  5.16  10.33  17.08  #90
  H  5.74  10.03  18.51  #91
  O  9.49  5.45  10.1  #92
  H  9.37  6.18  9.47  #93
  H  10.23  5.83  10.65  #94
  O  13.91  11.46  7.37  #95
  H  14.86  11.38  7.17  #96
  H  13.69  12.3  6.94  #97
  O  12.97  3.62  13.08  #98
  H  13.48  3.34  12.33  #99
  H  12.38  2.83  13.28  #100
  O  14.23  13.67  9.37  #101
  H  13.94  14.54  9.03  #102
  H  13.8  12.96  8.88  #103
  O  7.7  12.89  12.07  #104
  H  8.18  13.22  11.27  #105
  H  7.28  12.06  11.79  #106
  O  13.44  5.65  9.58  #107
  H  14.39  5.96  9.72  #108
  H  12.84  5.94  10.33  #109
  O  7.67  11.85  14.75  #110
  H  8.01  12.53  14.17  #111
  H  6.78  11.75  14.41  #112
  Q  0.6645  11.36$  13.33$  18.06$
  Q  0.6645  12.26$  13.56$  19.23$
  Q  -1.3290  12.07$  13.26$  18.49$
  Q  0.6645  10.7$  12.91$  0.03$
  Q  0.6645  11.7$  12.99$  1.14$
  Q  -1.3290  11.09$  13.29$  0.65$
  Q  0.6645  9.42$  2.65$  11.51$
  Q  0.6645  8.1$  2.33$  12.31$
  Q  -1.3290  8.92$  2.58$  12.2$
  Q  0.6645  10.11$  5.53$  4.96$
  Q  0.6645  10.19$  5.62$  3.32$
  Q  -1.3290  10.42$  5.43$  4.13$
  Q  0.6645  11.07$  7.44$  4.59$
  Q  0.6645  11.35$  8.23$  5.86$
  Q  -1.3290  11.52$  7.9$  5.11$
  Q  0.6645  10.37$  19.77$  11.41$
  Q  0.6645  11$  18.95$  10.32$
  Q  -1.3290  10.99$  19.32$  11.07$
  Q  0.6645  19.69$  9.21$  8.45$
  Q  0.6645  20.9$  8.89$  9.19$
  Q  -1.3290  20.35$  9.41$  8.89$
  Q  0.6645  9.25$  16.64$  2.77$
  Q  0.6645  10.18$  15.4$  3.07$
  Q  -1.3290  9.62$  15.87$  2.63$
  Q  0.6645  5.64$  12.08$  19.62$
  Q  0.6645  6.38$  12.94$  18.63$
  Q  -1.3290  5.75$  12.47$  18.89$
  Q  0.6645  5.62$  3.62$  6.88$
  Q  0.6645  6.47$  3.44$  5.59$
  Q  -1.3290  6.34$  3.56$  6.43$
  Q  0.6645  6.01$  20.66$  11.73$
  Q  0.6645  5.64$  19.44$  12.43$
  Q  -1.3290  6.18$  19.94$  12.11$
  Q  0.6645  1.37$  10.4$  12.74$
  Q  0.6645  0.49$  11.61$  12.12$
  Q  -1.3290  0.78$  10.81$  12.24$
  Q  0.6645  17.09$  10.36$  6.37$
  Q  0.6645  16.79$  11.81$  6.1$
  Q  -1.3290  16.88$  11.14$  6.58$
  Q  0.6645  15.41$  20.59$  12.05$
  Q  0.6645  15.07$  21.56$  13.13$
  Q  -1.3290  14.99$  21.22$  12.4$
  Q  0.6645  14.9$  18.79$  13.47$
  Q  0.6645  15.43$  19.08$  14.93$
  Q  -1.3290  14.9$  18.76$  14.32$
  Q  0.6645  5.22$  13.67$  7.99$
  Q  0.6645  5.93$  13.66$  6.59$
  Q  -1.3290  5.78$  13.39$  7.38$
  Q  0.6645  18.23$  5.89$  15.99$
  Q  0.6645  17.07$  5.84$  14.87$
  Q  -1.3290  17.46$  5.68$  15.62$
  Q  0.6645  16.23$  16.81$  7.13$
  Q  0.6645  15.74$  17.9$  6.11$
  Q  -1.3290  16.23$  17.55$  6.7$
  Q  0.6645  7.31$  14.77$  16.92$
  Q  0.6645  7.51$  15.13$  18.44$
  Q  -1.3290  7.46$  14.65$  17.74$
  Q  0.6645  10.59$  1.2$  16.05$
  Q  0.6645  11.82$  1.64$  16.61$
  Q  -1.3290  11.11$  1.35$  16.68$
  Q  0.6645  14.48$  2.63$  10.23$
  Q  0.6645  13.85$  4.08$  10.28$
  Q  -1.3290  13.93$  3.26$  10.5$
  Q  0.6645  16.19$  3.97$  5.31$
  Q  0.6645  17.14$  4.5$  6.48$
  Q  -1.3290  16.65$  4.52$  5.77$
  Q  0.6645  19.75$  12.18$  5.16$
  Q  0.6645  18.75$  12.46$  3.93$
  Q  -1.3290  19.06$  12.46$  4.73$
  Q  0.6645  17.05$  6.35$  19.55$
  Q  0.6645  16.33$  5.8$  18.34$
  Q  -1.3290  16.96$  5.85$  18.9$
  Q  0.6645  15$  4.68$  3.41$
  Q  0.6645  16.41$  5.04$  2.94$
  Q  -1.3290  15.73$  4.58$  2.97$
  Q  0.6645  3.36$  14.92$  5.74$
  Q  0.6645  4.06$  13.69$  5.26$
  Q  -1.3290  3.99$  14.51$  5.34$
  Q  0.6645  11.83$  11.42$  4.65$
  Q  0.6645  11.41$  12.7$  4.03$
  Q  -1.3290  11.26$  11.99$  4.41$
  Q  0.6645  7.53$  8.45$  0.66$
  Q  0.6645  6.03$  8.24$  1.22$
  Q  -1.3290  6.7$  8.21$  0.66$
  Q  0.6645  19.41$  9.86$  11.05$
  Q  0.6645  20.21$  10.31$  12.34$
  Q  -1.3290  19.54$  10$  11.9$
  Q  0.6645  3.55$  16.93$  15.61$
  Q  0.6645  4.47$  17.25$  14.44$
  Q  -1.3290  4.24$  16.89$  15.14$
  Q  0.6645  16.82$  7.48$  1.5$
  Q  0.6645  15.55$  7.11$  2.19$
  Q  -1.3290  16.4$  7.18$  2.12$
  Q  0.6645  9.32$  12.31$  3.5$
  Q  0.6645  9.13$  12.72$  2.03$
  Q  -1.3290  8.84$  12.46$  2.82$
  Q  0.6645  20.17$  15.12$  6.75$
  Q  0.6645  20.12$  13.94$  7.63$
  Q  -1.3290  20.42$  14.37$  7$
  Q  0.6645  12.79$  5.92$  8.1$
  Q  0.6645  13.07$  5.46$  6.6$
  Q  -1.3290  12.71$  5.9$  7.24$
  Q  0.6645  4.66$  12.13$  3.98$
  Q  0.6645  3.93$  11.15$  5.13$
  Q  -1.3290  4.08$  11.85$  4.6$
  Q  0.6645  15.17$  1.33$  5.48$
  Q  0.6645  14.86$  2.61$  6.22$
  Q  -1.3290  15.37$  2$  5.94$
  Q  0.6645  11.38$  19.96$  4.57$
  Q  0.6645  12.18$  18.74$  3.79$
  Q  -1.3290  11.6$  19.12$  4.31$
  Q  0.6645  6.16$  15.43$  15$
  Q  0.6645  6.17$  13.85$  14.79$
  Q  -1.3290  6.52$  14.64$  14.9$
  Q  0.6645  4.91$  0.31$  10.45$
  Q  0.6645  5.99$  1.23$  10.15$
  Q  -1.3290  5.44$  0.84$  10.64$
  Q  0.6645  17.52$  7.26$  12.75$
  Q  0.6645  18.2$  8.66$  12.79$
  Q  -1.3290  17.92$  7.96$  13.1$
  Q  0.6645  15.14$  13.56$  10.72$
  Q  0.6645  16.4$  13.25$  11.63$
  Q  -1.3290  15.59$  13.44$  11.46$
  Q  0.6645  9.61$  9.95$  0.14$
  Q  0.6645  9.87$  8.56$  -0.2$
  Q  -1.3290  9.57$  9.14$  0.3$
  Q  0.6645  7.66$  15.99$  9.08$
  Q  0.6645  7.31$  17.45$  8.9$
  Q  -1.3290  7.66$  16.72$  8.69$
  Q  0.6645  3.82$  5.78$  19.23$
  Q  0.6645  4.16$  5.5$  17.75$
  Q  -1.3290  3.8$  5.33$  18.48$
  Q  0.6645  5.78$  3.09$  13.26$
  Q  0.6645  6.45$  3.69$  14.43$
  Q  -1.3290  5.85$  3.24$  14.06$
  Q  0.6645  17.95$  12.63$  9.59$
  Q  0.6645  17.6$  12.25$  8.04$
  Q  -1.3290  17.95$  12.69$  8.69$
  Q  0.6645  9.78$  4.79$  7.1$
  Q  0.6645  10.77$  5.99$  6.99$
  Q  -1.3290  10$  5.6$  6.98$
  Q  0.6645  16.42$  15.63$  2.57$
  Q  0.6645  15.83$  14.92$  3.78$
  Q  -1.3290  16.08$  15.58$  3.32$
  Q  0.6645  4.29$  12.02$  7.61$
  Q  0.6645  3.76$  11.46$  8.94$
  Q  -1.3290  3.9$  11.45$  8.1$
  Q  0.6645  6.31$  9.79$  2.83$
  Q  0.6645  7.51$  10.81$  2.67$
  Q  -1.3290  7.13$  10.04$  2.7$
  Q  0.6645  4.49$  8.54$  19.54$
  Q  0.6645  3.29$  8.2$  20.4$
  Q  -1.3290  3.7$  8.26$  19.68$
  Q  0.6645  17.59$  7.68$  7.68$
  Q  0.6645  17.66$  8.38$  9.01$
  Q  -1.3290  17.91$  7.81$  8.44$
  Q  0.6645  14.07$  16.27$  3.62$
  Q  0.6645  12.95$  16.73$  2.79$
  Q  -1.3290  13.33$  16.55$  3.51$
  Q  0.6645  8$  15.21$  1.17$
  Q  0.6645  6.72$  16$  1.21$
  Q  -1.3290  7.2$  15.34$  0.96$
  Q  0.6645  11.29$  0.76$  14.08$
  Q  0.6645  10.48$  1.79$  13.4$
  Q  -1.3290  11.13$  1.52$  13.84$
  Q  0.6645  10.83$  11.18$  20.31$
  Q  0.6645  9.51$  11.84$  20.04$
  Q  -1.3290  10.09$  11.45$  20.51$
  Q  0.6645  6.67$  4.12$  17.81$
  Q  0.6645  6.66$  5.29$  18.71$
  Q  -1.3290  6.87$  4.89$  18.05$
  Q  0.6645  11.61$  19.82$  14.43$
  Q  0.6645  12.5$  20.22$  13.2$
  Q  -1.3290  12.17$  20.29$  13.98$
  Q  0.6645  9.77$  6.74$  20.03$
  Q  0.6645  10.23$  7.62$  18.88$
  Q  -1.3290  10.15$  7.44$  19.68$
  Q  0.6645  2.67$  11.25$  11.35$
  Q  0.6645  4.12$  11.58$  11.13$
  Q  -1.3290  3.38$  11.36$  10.88$
  Q  0.6645  15.28$  11.69$  12$
  Q  0.6645  16.17$  11$  13.03$
  Q  -1.3290  15.51$  11.04$  12.49$
  Q  0.6645  10$  3.08$  8.24$
  Q  0.6645  9.49$  2.1$  7.09$
  Q  -1.3290  9.91$  2.79$  7.42$
  Q  0.6645  5.41$  7.53$  11.49$
  Q  0.6645  4.46$  8.45$  10.62$
  Q  -1.3290  4.78$  8.1$  11.35$
  Q  0.6645  7.95$  20.2$  12.45$
  Q  0.6645  8.67$  20.93$  13.55$
  Q  -1.3290  8.6$  20.53$  12.83$
  Q  0.6645  19.12$  14.81$  4.96$
  Q  0.6645  18.23$  16.06$  4.99$
  Q  -1.3290  18.96$  15.64$  5.02$
  Q  0.6645  13.96$  12.15$  2.23$
  Q  0.6645  12.83$  11.3$  2.13$
  Q  -1.3290  13.18$  12.05$  2.11$
  Q  0.6645  13.55$  15.2$  20.67$
  Q  0.6645  12.35$  14.37$  21.21$
  Q  -1.3290  13.05$  14.53$  20.71$
  Q  0.6645  13.56$  3.08$  15.41$
  Q  0.6645  13.14$  3.35$  16.81$
  Q  -1.3290  13.3$  2.86$  16.16$
  Q  0.6645  13.2$  1.73$  7.21$
  Q  0.6645  12.02$  2.8$  7.49$
  Q  -1.3290  12.78$  2.48$  7.16$
  Q  0.6645  14.05$  6.98$  5.53$
  Q  0.6645  15.54$  6.38$  5.69$
  Q  -1.3290  14.89$  6.97$  5.71$
  Q  0.6645  8.2$  1.83$  9.45$
  Q  0.6645  7.36$  2.81$  8.66$
  Q  -1.3290  7.52$  2.31$  9.31$
  Q  0.6645  11.75$  16.58$  0.05$
  Q  0.6645  11.03$  16.07$  1.3$
  Q  -1.3290  11.66$  16.46$  0.9$
  Q  0.6645  3.65$  12.74$  21.27$
  Q  0.6645  3.1$  12.08$  19.95$
  Q  -1.3290  3.4$  12.08$  20.79$
  Q  0.6645  6.52$  3.11$  11.03$
  Q  0.6645  6.89$  4.53$  11.71$
  Q  -1.3290  6.54$  3.72$  11.62$
  Q  0.6645  17.81$  14.99$  16.13$
  Q  0.6645  18.81$  14.12$  16.9$
  Q  -1.3290  18.52$  14.86$  16.58$
  Q  0.6645  16.18$  7.17$  10.53$
  Q  0.6645  16.84$  6.02$  9.62$
  Q  -1.3290  16.32$  6.39$  10.22$
  Q  0.6645  1.01$  9.12$  11.14$
  Q  0.6645  1.61$  7.86$  11.42$
  Q  -1.3290  1.25$  8.37$  10.94$
  Q  0.6645  7.55$  13.34$  4.09$
  Q  0.6645  7.5$  14.62$  4.81$
  Q  -1.3290  7.29$  13.86$  4.68$
  Q  0.6645  1.22$  11.91$  8.8$
  Q  0.6645  -0.18$  11.16$  8.91$
  Q  -1.3290  0.36$  11.82$  9$
  Q  0.6645  20.83$  10.69$  15.31$
  Q  0.6645  22.33$  11.14$  15.48$
  Q  -1.3290  21.49$  11.25$  15.44$
  Q  0.6645  3.18$  3.13$  14.26$
  Q  0.6645  1.81$  3.88$  14.41$
  Q  -1.3290  2.59$  3.76$  14.14$
  Q  0.6645  4.27$  5.25$  7.75$
  Q  0.6645  3.97$  4.28$  8.94$
  Q  -1.3290  3.83$  4.59$  8.15$
  Q  0.6645  10.66$  18.1$  15.71$
  Q  0.6645  9.52$  17.74$  14.8$
  Q  -1.3290  10.05$  18.27$  15.18$
  Q  0.6645  15.43$  3.28$  17.33$
  Q  0.6645  16.5$  3.92$  16.45$
  Q  -1.3290  16.06$  3.28$  16.78$
  Q  0.6645  11.54$  2.75$  10.09$
  Q  0.6645  10.38$  3.88$  10.15$
  Q  -1.3290  10.74$  3.09$  10.06$
  Q  0.6645  16.97$  13.59$  5.07$
  Q  0.6645  16.01$  12.82$  4.07$
  Q  -1.3290  16.2$  13.35$  4.73$
  Q  0.6645  16.96$  4.47$  12.9$
  Q  0.6645  16.37$  5.63$  11.97$
  Q  -1.3290  16.71$  5.28$  12.69$
  Q  0.6645  15.57$  14.54$  7.47$
  Q  0.6645  16.94$  14.27$  7.88$
  Q  -1.3290  16.39$  14.7$  7.47$
  Q  0.6645  6.52$  17.17$  16.82$
  Q  0.6645  7.05$  17.48$  15.42$
  Q  -1.3290  7.09$  17.39$  16.26$
  Q  0.6645  4.54$  17.29$  7.4$
  Q  0.6645  3.12$  17.35$  8.02$
  Q  -1.3290  3.95$  17.17$  8$
  Q  0.6645  11.79$  17.48$  13.66$
  Q  0.6645  11.61$  17.83$  12.13$
  Q  -1.3290  11.77$  17.31$  12.8$
  Q  0.6645  8.15$  5.01$  20.16$
  Q  0.6645  9.26$  5.17$  21.21$
  Q  -1.3290  8.9$  5.2$  20.44$
  Q  0.6645  7.35$  19.69$  8.8$
  Q  0.6645  6.88$  19.59$  10.31$
  Q  -1.3290  7.32$  19.36$  9.59$
  Q  0.6645  21.03$  14.05$  12.95$
  Q  0.6645  20.58$  13.16$  14.2$
  Q  -1.3290  20.57$  13.83$  13.64$
  Q  0.6645  6.17$  14.11$  11.96$
  Q  0.6645  5$  14.95$  12.22$
  Q  -1.3290  5.67$  14.75$  11.78$
  Q  0.6645  0.66$  7.38$  9.48$
  Q  0.6645  0.69$  6.58$  8.19$
  Q  -1.3290  0.35$  7.11$  8.73$
  Q  0.6645  10.03$  2.18$  18.23$
  Q  0.6645  9.42$  3.57$  18.36$
  Q  -1.3290  9.56$  2.79$  18.6$
  Q  0.6645  13.4$  6.26$  20.61$
  Q  0.6645  12.02$  6.98$  20.3$
  Q  -1.3290  12.56$  6.3$  20.47$
  Q  0.6645  14.79$  9.71$  4.1$
  Q  0.6645  15.74$  8.73$  3.41$
  Q  -1.3290  15.49$  9.45$  3.73$
  Q  0.6645  1.49$  8.31$  15.69$
  Q  0.6645  2.34$  7.09$  15.44$
  Q  -1.3290  1.96$  7.78$  15.22$
  Q  0.6645  18.5$  4.47$  8.61$
  Q  0.6645  17.1$  3.85$  8.65$
  Q  -1.3290  17.69$  4.39$  8.41$
  Q  0.6645  15.96$  11.68$  1.07$
  Q  0.6645  15.8$  10.86$  2.49$
  Q  -1.3290  15.95$  11.53$  1.93$
  Q  0.6645  17.2$  12.2$  14.55$
  Q  0.6645  17.34$  11.05$  15.39$
  Q  -1.3290  17.4$  11.43$  14.66$
  Q  0.6645  9.13$  15.36$  13.7$
  Q  0.6645  10.55$  15.54$  13.48$
  Q  -1.3290  9.91$  15.07$  13.66$
  Q  0.6645  4.69$  7.86$  3.23$
  Q  0.6645  3.84$  8.31$  1.97$
  Q  -1.3290  4.55$  8.2$  2.47$
  Q  0.6645  16.16$  9.73$  10.76$
  Q  0.6645  15.52$  8.99$  9.55$
  Q  -1.3290  16.13$  9.17$  10.12$
  Q  0.6645  15.53$  16.12$  17.96$
  Q  0.6645  16.38$  17.32$  17.76$
  Q  -1.3290  15.76$  16.91$  18.13$
  Q  0.6645  2.54$  9.18$  6.03$
  Q  0.6645  3.82$  8.56$  5.52$
  Q  -1.3290  3.36$  9.16$  5.87$
  Q  0.6645  12.77$  9.43$  5.01$
  Q  0.6645  13.41$  10.32$  5.96$
  Q  -1.3290  13.23$  10.08$  5.2$
  Q  0.6645  11.13$  3.74$  4.25$
  Q  0.6645  11.46$  2.77$  5.34$
  Q  -1.3290  11.4$  3.02$  4.57$
  Q  0.6645  6.23$  9.65$  21.08$
  Q  0.6645  4.97$  10.47$  20.97$
  Q  -1.3290  5.68$  10.11$  20.67$
  Q  0.6645  2.29$  5.87$  13.04$
  Q  0.6645  3.21$  6.76$  12.25$
  Q  -1.3290  2.57$  6.28$  12.33$
  Q  0.6645  15.62$  13.76$  18.51$
  Q  0.6645  14.28$  14.18$  18.04$
  Q  -1.3290  15.09$  14.2$  18.03$
  Q  0.6645  19.25$  8.85$  14.65$
  Q  0.6645  19.98$  8.42$  15.89$
  Q  -1.3290  19.88$  8.88$  15.19$
  Q  0.6645  9.2$  16.95$  16.88$
  Q  0.6645  9.82$  15.55$  16.78$
  Q  -1.3290  9.76$  16.34$  17.01$
  Q  0.6645  8.03$  17.41$  12.68$
  Q  0.6645  7.34$  16.16$  13.06$
  Q  -1.3290  7.8$  16.82$  13.22$
  Q  0.6645  13.04$  4.08$  4.17$
  Q  0.6645  13.1$  5.68$  3.96$
  Q  -1.3290  13.37$  4.89$  4.27$
  Q  0.6645  15.47$  18.93$  10.64$
  Q  0.6645  16.48$  18.23$  11.52$
  Q  -1.3290  15.75$  18.63$  11.36$
  Q  0.6645  18.73$  14.47$  10.28$
  Q  0.6645  18.39$  15.46$  11.39$
  Q  -1.3290  18.75$  15.22$  10.68$
  Q  0.6645  13.81$  16.14$  12.93$
  Q  0.6645  14.37$  14.78$  12.3$
  Q  -1.3290  14.05$  15.3$  12.94$
  Q  0.6645  17.37$  11.62$  17.58$
  Q  0.6645  16.83$  10.1$  17.29$
  Q  -1.3290  16.81$  10.97$  17.45$
  Q  0.6645  15.91$  19.44$  4$
  Q  0.6645  14.58$  18.58$  3.89$
  Q  -1.3290  15.09$  19.18$  4.23$
  Q  0.6645  16.66$  15.79$  13.26$
  Q  0.6645  17.68$  16.92$  13.58$
  Q  -1.3290  17.27$  16.36$  13.1$
  Q  0.6645  4.82$  14.66$  9.99$
  Q  0.6645  4.27$  15.41$  8.79$
  Q  -1.3290  4.33$  14.76$  9.32$
  Q  0.6645  8.51$  5.7$  1.93$
  Q  0.6645  9.16$  7.08$  1.68$
  Q  -1.3290  9.14$  6.24$  1.83$
  Q  0.6645  8.3$  5.45$  14.31$
  Q  0.6645  8.65$  4.04$  13.71$
  Q  -1.3290  8.31$  4.59$  14.26$
  Q  0.6645  3.96$  11.69$  14.49$
  Q  0.6645  4.13$  12.77$  13.6$
  Q  -1.3290  4.42$  12.16$  14.02$
  Q  0.6645  4.91$  13.56$  17.16$
  Q  0.6645  4.37$  14.99$  16.74$
  Q  -1.3290  4.38$  14.13$  16.76$
  Q  0.6645  11.91$  4.94$  19.04$
  Q  0.6645  11.2$  4.47$  17.74$
  Q  -1.3290  11.84$  4.54$  18.27$
  Q  0.6645  7.89$  6.18$  11.1$
  Q  0.6645  7.4$  6.91$  12.46$
  Q  -1.3290  7.33$  6.5$  11.68$
  Q  0.6645  9.35$  0.06$  11.28$
  Q  0.6645  10.62$  0.34$  10.44$
  Q  -1.3290  9.82$  0.13$  10.59$
  Q  0.6645  1.24$  12.65$  18.47$
  Q  0.6645  2.63$  13$  17.77$
  Q  -1.3290  2.13$  12.63$  18.34$
  Q  0.6645  15.6$  14.7$  14.53$
  Q  0.6645  15.43$  14.06$  15.82$
  Q  -1.3290  15.89$  14.31$  15.17$
  Q  0.6645  15.91$  19.54$  7.8$
  Q  0.6645  16.55$  20.78$  8.17$
  Q  -1.3290  15.98$  20.22$  8.25$
  Q  0.6645  13.14$  6.41$  2.02$
  Q  0.6645  13.1$  7.97$  2.62$
  Q  -1.3290  13.35$  7.11$  2.55$
  Q  0.6645  12.37$  -0.66$  10.94$
  Q  0.6645  13.26$  0.52$  11.17$
  Q  -1.3290  12.63$  0.1$  10.78$
  Q  0.6645  8$  9.55$  4.21$
  Q  0.6645  8.5$  10.11$  5.55$
  Q  -1.3290  8.37$  9.52$  4.97$
  Q  0.6645  13.02$  13.98$  5.17$
  Q  0.6645  14.54$  13.93$  5.42$
  Q  -1.3290  13.73$  13.84$  5.63$
  Q  0.6645  9.27$  4.72$  16.08$
  Q  0.6645  8.86$  5.09$  17.39$
  Q  -1.3290  9.43$  4.92$  16.87$
  Q  0.6645  2.87$  15.06$  13.27$
  Q  0.6645  3.69$  14.58$  14.43$
  Q  -1.3290  3.54$  14.73$  13.62$
  Q  0.6645  11.6$  9.97$  3.06$
  Q  0.6645  11.17$  9.35$  1.74$
  Q  -1.3290  11.73$  9.61$  2.3$
  Q  0.6645  4.3$  17.93$  9.51$
  Q  0.6645  3.84$  18.53$  10.82$
  Q  -1.3290  4.3$  18.55$  10.09$
  Q  0.6645  10.55$  12.81$  16.34$
  Q  0.6645  10.33$  13.92$  15.26$
  Q  -1.3290  10.68$  13.58$  15.95$
  Q  0.6645  1.06$  15.4$  8.96$
  Q  0.6645  2.42$  15.15$  9.65$
  Q  -1.3290  1.63$  15.45$  9.6$
  Q  0.6645  15.24$  8.43$  16.85$
  Q  0.6645  16.5$  7.6$  16.51$
  Q  -1.3290  16.04$  8.29$  16.61$
  Q  0.6645  5.71$  20.35$  6.64$
  Q  0.6645  6.42$  19.15$  6.32$
  Q  -1.3290  6.38$  19.93$  6.52$
  Q  0.6645  11.05$  16.91$  19.04$
  Q  0.6645  10.16$  16.09$  19.9$
  Q  -1.3290  10.82$  16.59$  19.76$
  Q  0.6645  4.04$  6.03$  4.4$
  Q  0.6645  5.16$  6.48$  5.4$
  Q  -1.3290  4.65$  6.54$  4.71$
  Q  0.6645  14.4$  5.17$  16.39$
  Q  0.6645  13.66$  4.97$  17.86$
  Q  -1.3290  14.3$  5.18$  17.29$
  Q  0.6645  15.65$  10.24$  19.2$
  Q  0.6645  14.26$  9.86$  19.6$
  Q  -1.3290  15.08$  9.87$  19.7$
  Q  0.6645  12.28$  9.41$  18.82$
  Q  0.6645  12.52$  10.87$  18.49$
  Q  -1.3290  12.49$  10.2$  19$
  Q  0.6645  4.36$  3.96$  11.16$
  Q  0.6645  2.84$  4.44$  11.33$
  Q  -1.3290  3.49$  4$  11$
  Q  0.6645  3.68$  9.5$  8.61$
  Q  0.6645  2.64$  8.66$  9.18$
  Q  -1.3290  3.42$  8.8$  8.93$
  Q  0.6645  12.35$  18.99$  6.02$
  Q  0.6645  12.67$  19.71$  7.36$
  Q  -1.3290  12.57$  19.06$  6.85$
  Q  0.6645  14.3$  9.35$  7.73$
  Q  0.6645  14.38$  7.83$  7.54$
  Q  -1.3290  14.17$  8.56$  7.94$
  Q  0.6645  19.36$  11.52$  16.92$
  Q  0.6645  19.61$  12.17$  18.2$
  Q  -1.3290  19.24$  12.11$  17.47$
  Q  0.6645  18.55$  13.34$  12.19$
  Q  0.6645  18.73$  11.88$  11.71$
  Q  -1.3290  18.38$  12.65$  11.72$
  Q  0.6645  14.68$  11.34$  20.77$
  Q  0.6645  14.22$  12.7$  21.13$
  Q  -1.3290  14.79$  12.12$  21.03$
  Q  0.6645  6.82$  16.61$  6.9$
  Q  0.6645  5.56$  16.35$  5.91$
  Q  -1.3290  6.14$  16.81$  6.39$
  Q  0.6645  4.62$  6.41$  15.54$
  Q  0.6645  3.68$  5.13$  15.16$
  Q  -1.3290  3.92$  5.88$  15.53$
  Q  0.6645  9.29$  19.64$  8.3$
  Q  0.6645  9.41$  20.93$  8.81$
  Q  -1.3290  9.37$  20.45$  8.21$
  Q  0.6645  5.57$  5.47$  20.76$
  Q  0.6645  6.25$  6.85$  21.01$
  Q  -1.3290  6.01$  6.19$  20.54$
  Q  0.6645  7.38$  15.87$  20.63$
  Q  0.6645  7.86$  17.01$  19.79$
  Q  -1.3290  7.46$  16.32$  19.93$
  Q  0.6645  12.15$  14.52$  15.91$
  Q  0.6645  13.4$  14.77$  14.88$
  Q  -1.3290  12.88$  14.93$  15.54$
  Q  0.6645  10.58$  15.15$  4.97$
  Q  0.6645  11.97$  15.57$  4.36$
  Q  -1.3290  11.3$  15.08$  4.44$
  Q  0.6645  18.29$  8.56$  5.03$
  Q  0.6645  16.85$  8.29$  5.17$
  Q  -1.3290  17.6$  8.45$  5.48$
  Q  0.6645  2.66$  11.15$  16.92$
  Q  0.6645  3.02$  9.99$  15.99$
  Q  -1.3290  2.86$  10.78$  16.17$
  Q  0.6645  3.99$  12.54$  1.6$
  Q  0.6645  5.49$  12.59$  1.63$
  Q  -1.3290  4.73$  12.3$  1.85$
  Q  0.6645  13.24$  18.05$  15.03$
  Q  0.6645  12.62$  16.9$  15.86$
  Q  -1.3290  12.62$  17.67$  15.48$
  Q  0.6645  0.6$  9.31$  18.15$
  Q  0.6645  2.02$  8.84$  18.38$
  Q  -1.3290  1.3$  8.91$  17.94$
  Q  0.6645  9.86$  18.43$  5.16$
  Q  0.6645  9.18$  19.27$  6.07$
  Q  -1.3290  9.27$  18.53$  5.7$
  Q  0.6645  2.64$  8.82$  13.71$
  Q  0.6645  3.49$  9.35$  12.51$
  Q  -1.3290  2.92$  9.39$  13.11$
*
