! NoMOPrint PrintBasis #MINIPRINT SMALLPRINT LARGEPRINT
! ALLPOP XYZFILE
#! BP86 3-21G   TightSCF
! ENGRAD
! B3LYP NormalPNO PModel #DecontractAux
#! VerySlowConv 
 %maxcore 5000
 %scf  maxiter   500  end 

%pal
    nprocs 32
end

%basis
    NewGTO O    # New basis for oxygen
        "aug-cc-pVTZ"
    end
    NewGTO C    # New basis for carbon
        "aug-cc-pVTZ"
    end
    NewGTO H    # New basis for hydrogen
        "cc-pVTZ"
    end
end

* xyz 0   1
  C  11.4  12.25  10.92  #1
  H  10.87  12.85  10.16  #2
  H  12.01  11.5  10.36  #3
  C  10.37  11.75  12.02  #4
  H  10.83  11.81  13.05  #5
  H  9.53  12.47  12.01  #6
  C  9.82  10.35  11.91  #7
  H  8.8  10.39  12.26  #8
  H  10.26  9.68  12.68  #9
  C  9.92  9.68  10.59  #10
  H  9.62  8.7  10.56  #11
  H  11  9.79  10.36  #12
  O  9.31  10.48  9.59  #13
  H  9.36  9.89  8.82  #14
  O  12.3  13.17  11.6  #15
  H  13.06  12.66  11.92  #16
  O  5.98  11.65  12.7  #17
  H  6.05  10.69  12.56  #18
  H  5.09  11.84  12.33  #19
  O  8.45  11.35  14.86  #20
  H  8.09  11.95  14.24  #21
  H  9.35  11.6  15.04  #22
  O  12.62  9  12.9  #23
  H  13.51  8.76  12.65  #24
  H  11.99  8.3  12.58  #25
  O  10.55  15.58  10.16  #26
  H  11.02  16.39  9.86  #27
  H  10.97  15.28  10.95  #28
  O  13.61  15.21  10.27  #29
  H  13.04  15.25  9.52  #30
  H  13.17  14.63  10.94  #31
  O  11.48  13.97  8.21  #32
  H  10.85  14.2  8.93  #33
  H  11.47  14.59  7.49  #34
  O  14.74  12.25  12.1  #35
  H  15.26  11.66  12.69  #36
  H  15.17  12.09  11.21  #37
  O  13.51  12.34  8.52  #38
  H  14.18  12.89  8.89  #39
  H  12.79  12.97  8.36  #40
  O  3.75  12.68  11.11  #41
  H  3  12.22  10.81  #42
  H  3.52  13.56  10.91  #43
  O  15.24  14.67  13.5  #44
  H  14.36  15.1  13.64  #45
  H  14.96  13.94  12.93  #46
  O  15.36  7.51  12.74  #47
  H  15.79  7.93  12  #48
  H  15.45  8.02  13.53  #49
  O  14.74  17.36  11.37  #50
  H  15.46  16.72  11.5  #51
  H  14.24  16.82  10.72  #52
  O  11.69  9.29  7.07  #53
  H  12.17  10.05  6.68  #54
  H  12.35  8.71  7.38  #55
  O  7.84  11.51  17.5  #56
  H  7.66  11.71  16.54  #57
  H  7.18  11.94  17.95  #58
  O  11.07  6.78  12.43  #59
  H  10.93  6.44  11.56  #60
  H  10.24  6.82  12.92  #61
  O  11.1  11.57  15.61  #62
  H  11.44  12.26  15.02  #63
  H  11.51  10.68  15.43  #64
  O  8.9  8.49  15.55  #65
  H  9.85  8.58  15.67  #66
  H  8.53  9.43  15.32  #67
  O  7.6  14.72  9.55  #68
  H  8.47  15.01  9.91  #69
  H  7.58  13.74  9.77  #70
  O  5.93  9.07  12.03  #71
  H  6.23  8.73  11.14  #72
  H  5.96  8.29  12.6  #73
  O  14.5  9.87  9.36  #74
  H  14.01  10.71  9.42  #75
  H  13.95  9.23  8.98  #76
  O  12.23  13.84  14.81  #77
  H  12.18  14.46  14.02  #78
  H  11.84  14.44  15.44  #79
  O  11.7  8.71  15.45  #80
  H  12.01  8.34  16.35  #81
  H  12.4  8.6  14.77  #82
  O  11.39  17.91  8.84  #83
  H  11.98  18.56  9.16  #84
  H  11.68  17.89  7.91  #85
  O  9.74  15.4  13.26  #86
  H  9.54  16  12.5  #87
  H  9.05  14.7  13.18  #88
  O  7.53  13.67  13.38  #89
  H  6.92  13.05  12.91  #90
  H  7.12  13.87  14.26  #91
  O  8.92  8.63  6.8  #92
  H  8.43  7.78  7.04  #93
  H  9.87  8.51  6.94  #94
  O  8.51  11.47  6.4  #95
  H  9.45  11.72  6.32  #96
  H  8.6  10.48  6.36  #97
  O  6.94  11.81  9.76  #98
  H  6.39  11.64  10.54  #99
  H  7.75  11.22  9.88  #100
  Q  0.6645  4.34$  2.76$  8.02$
  Q  0.6645  3.3$  2.98$  9.2$
  Q  -1.3290  3.96$  2.6$  8.77$
  Q  0.6645  8.52$  10.23$  18.44$
  Q  0.6645  8.43$  8.69$  18.32$
  Q  -1.3290  8.69$  9.4$  18.68$
  Q  0.6645  21.42$  13.12$  8.81$
  Q  0.6645  22.3$  12.06$  7.88$
  Q  -1.3290  21.73$  12.71$  8.07$
  Q  0.6645  16$  13.88$  9.93$
  Q  0.6645  16.13$  13.14$  8.62$
  Q  -1.3290  15.91$  13.22$  9.43$
  Q  0.6645  3.02$  4.75$  3.81$
  Q  0.6645  3.87$  5.47$  4.9$
  Q  -1.3290  3.67$  4.84$  4.35$
  Q  0.6645  0.64$  9.95$  10.09$
  Q  0.6645  1.98$  10.77$  9.56$
  Q  -1.3290  1.33$  10.53$  10.13$
  Q  0.6645  18.51$  18.89$  10.46$
  Q  0.6645  18.3$  17.74$  9.55$
  Q  -1.3290  18.48$  18.07$  10.26$
  Q  0.6645  8.79$  18.46$  5.57$
  Q  0.6645  9.83$  17.53$  5.86$
  Q  -1.3290  9.13$  17.91$  6.04$
  Q  0.6645  16.14$  10.29$  7.96$
  Q  0.6645  16.67$  11$  6.64$
  Q  -1.3290  16.69$  10.74$  7.47$
  Q  0.6645  15.67$  12.02$  4.29$
  Q  0.6645  15.84$  10.61$  4.55$
  Q  -1.3290  15.7$  11.38$  4.79$
  Q  0.6645  20.78$  14.85$  10.25$
  Q  0.6645  19.68$  13.77$  10.19$
  Q  -1.3290  20.46$  14.08$  10.11$
  Q  0.6645  7.96$  6.21$  1.19$
  Q  0.6645  6.66$  5.3$  0.89$
  Q  -1.3290  7.48$  5.61$  0.78$
  Q  0.6645  13.59$  2.29$  12.4$
  Q  0.6645  12.06$  2.88$  12.31$
  Q  -1.3290  12.71$  2.29$  12.43$
  Q  0.6645  6.74$  21.6$  12.9$
  Q  0.6645  6.79$  20.56$  11.73$
  Q  -1.3290  7.09$  21.17$  12.23$
  Q  0.6645  17.46$  12.28$  10.24$
  Q  0.6645  18.33$  12.37$  11.7$
  Q  -1.3290  18.13$  12.18$  10.83$
  Q  0.6645  5.44$  12.38$  19.35$
  Q  0.6645  6.28$  13.59$  19.18$
  Q  -1.3290  5.76$  13.01$  18.91$
  Q  0.6645  13.15$  4.56$  11.31$
  Q  0.6645  11.7$  4.43$  10.74$
  Q  -1.3290  12.56$  4.36$  10.72$
  Q  0.6645  11.58$  12.98$  5.36$
  Q  0.6645  11.61$  13.82$  4.18$
  Q  -1.3290  11.21$  13.4$  4.77$
  Q  0.6645  16.69$  16.6$  5.27$
  Q  0.6645  17.14$  16.94$  6.71$
  Q  -1.3290  16.69$  17.05$  5.98$
  Q  0.6645  0.8$  8.49$  14.64$
  Q  0.6645  1.99$  8.42$  13.6$
  Q  -1.3290  1.46$  8.15$  14.22$
  Q  0.6645  17.28$  11.22$  13.64$
  Q  0.6645  16.21$  11.52$  14.76$
  Q  -1.3290  16.54$  11.14$  14.05$
  Q  0.6645  8.42$  5.23$  10.4$
  Q  0.6645  8.8$  4.89$  8.98$
  Q  -1.3290  8.55$  5.38$  9.59$
  Q  0.6645  11.44$  12.21$  21.03$
  Q  0.6645  11.24$  11.38$  19.85$
  Q  -1.3290  10.97$  11.77$  20.52$
  Q  0.6645  13.95$  17.03$  7.22$
  Q  0.6645  12.71$  17.16$  6.24$
  Q  -1.3290  13.26$  16.78$  6.76$
  Q  0.6645  11.24$  11.02$  2.52$
  Q  0.6645  12.05$  11.62$  3.72$
  Q  -1.3290  11.92$  11.15$  3.04$
  Q  0.6645  3.77$  9.51$  15.9$
  Q  0.6645  2.83$  8.39$  15.35$
  Q  -1.3290  3.56$  8.73$  15.64$
  Q  0.6645  6.73$  4.44$  16.44$
  Q  0.6645  6.51$  5.76$  15.58$
  Q  -1.3290  6.35$  5.19$  16.23$
  Q  0.6645  6.39$  16.68$  18.36$
  Q  0.6645  6.86$  17.86$  17.3$
  Q  -1.3290  6.73$  17.06$  17.64$
  Q  0.6645  4.49$  4.55$  16.55$
  Q  0.6645  3.96$  3.71$  15.51$
  Q  -1.3290  3.93$  4.01$  16.25$
  Q  0.6645  2.66$  12.26$  7.54$
  Q  0.6645  3.05$  10.97$  7.01$
  Q  -1.3290  2.72$  11.43$  7.57$
  Q  0.6645  10.53$  15.95$  16.67$
  Q  0.6645  10.56$  14.58$  17.55$
  Q  -1.3290  10.89$  15.27$  17.09$
  Q  0.6645  4.44$  14.88$  3.23$
  Q  0.6645  4.31$  14.86$  1.76$
  Q  -1.3290  4.66$  14.64$  2.49$
  Q  0.6645  16.28$  6.35$  15.97$
  Q  0.6645  14.94$  5.53$  15.88$
  Q  -1.3290  15.54$  6.06$  16.23$
  Q  0.6645  9.31$  18.19$  11.48$
  Q  0.6645  8.67$  18.19$  12.95$
  Q  -1.3290  9.29$  18.07$  12.37$
  Q  0.6645  13.67$  11.39$  1.57$
  Q  0.6645  14.5$  10.54$  0.54$
  Q  -1.3290  14.19$  11.24$  0.9$
  Q  0.6645  11.82$  1.98$  17.82$
  Q  0.6645  13.35$  2.25$  18.05$
  Q  -1.3290  12.6$  2.32$  17.66$
  Q  0.6645  14.99$  10.71$  16.95$
  Q  0.6645  13.83$  10.54$  17.75$
  Q  -1.3290  14.56$  10.3$  17.49$
  Q  0.6645  15.09$  17.87$  19.1$
  Q  0.6645  13.81$  17.07$  19.42$
  Q  -1.3290  14.57$  17.18$  19.07$
  Q  0.6645  20.52$  17.2$  10.76$
  Q  0.6645  21.28$  16.23$  11.72$
  Q  -1.3290  21.05$  16.57$  10.97$
  Q  0.6645  8.91$  8.46$  2.08$
  Q  0.6645  7.44$  8.58$  1.82$
  Q  -1.3290  8.15$  8.17$  1.89$
  Q  0.6645  17.04$  11.51$  19.88$
  Q  0.6645  16.51$  12.95$  19.7$
  Q  -1.3290  16.98$  12.34$  20.07$
  Q  0.6645  3.59$  11.8$  16.53$
  Q  0.6645  5.01$  12.05$  15.89$
  Q  -1.3290  4.36$  11.59$  16.2$
  Q  0.6645  7.87$  15.2$  20.73$
  Q  0.6645  8.19$  14.33$  19.57$
  Q  -1.3290  7.7$  14.85$  20$
  Q  0.6645  11.85$  11.36$  17.39$
  Q  0.6645  12.9$  12.14$  18.12$
  Q  -1.3290  12.42$  11.47$  18.01$
  Q  0.6645  15.27$  14.93$  4.5$
  Q  0.6645  14.4$  15.33$  5.72$
  Q  -1.3290  14.93$  14.85$  5.29$
  Q  0.6645  10.33$  4.03$  3.55$
  Q  0.6645  11.87$  3.52$  3.66$
  Q  -1.3290  11.12$  3.91$  3.91$
  Q  0.6645  15.36$  6.65$  19.93$
  Q  0.6645  14.31$  6.59$  18.79$
  Q  -1.3290  14.69$  6.34$  19.54$
  Q  0.6645  6.52$  19.11$  14.45$
  Q  0.6645  7.55$  18.01$  14.63$
  Q  -1.3290  7.07$  18.5$  14.18$
  Q  0.6645  20.15$  9.23$  15.57$
  Q  0.6645  21.1$  10.19$  14.75$
  Q  -1.3290  20.82$  9.43$  15.09$
  Q  0.6645  15.53$  15.35$  16.21$
  Q  0.6645  14.75$  16.33$  17.16$
  Q  -1.3290  15.05$  16.02$  16.41$
  Q  0.6645  8.13$  14.64$  5.75$
  Q  0.6645  9.16$  13.99$  4.89$
  Q  -1.3290  8.41$  14.37$  5.01$
  Q  0.6645  18.88$  8.34$  12.77$
  Q  0.6645  19.83$  7.97$  13.83$
  Q  -1.3290  19.22$  7.82$  13.28$
  Q  0.6645  9.08$  5.49$  14.32$
  Q  0.6645  8.52$  6.93$  14.02$
  Q  -1.3290  8.83$  6.17$  13.86$
  Q  0.6645  17.27$  6.49$  8.88$
  Q  0.6645  16.28$  5.4$  8.6$
  Q  -1.3290  17.01$  5.69$  8.86$
  Q  0.6645  6.24$  11$  2.81$
  Q  0.6645  4.89$  10.18$  2.8$
  Q  -1.3290  5.56$  10.65$  2.46$
  Q  0.6645  16.96$  8.39$  3.66$
  Q  0.6645  15.72$  8.33$  4.49$
  Q  -1.3290  16.3$  8.7$  4.02$
  Q  0.6645  3.98$  9.05$  12.09$
  Q  0.6645  2.64$  9.42$  11.27$
  Q  -1.3290  3.14$  9.18$  11.98$
  Q  0.6645  -0.37$  12.46$  15.36$
  Q  0.6645  0.85$  12.04$  14.5$
  Q  -1.3290  0.07$  11.98$  14.82$
  Q  0.6645  3.98$  12.74$  3.56$
  Q  0.6645  2.52$  12.62$  4.15$
  Q  -1.3290  3.36$  12.51$  4.11$
  Q  0.6645  16.35$  14.83$  18.41$
  Q  0.6645  14.87$  14.25$  18.42$
  Q  -1.3290  15.71$  14.25$  18.26$
  Q  0.6645  18.79$  6.35$  11.67$
  Q  0.6645  18.48$  5.57$  10.47$
  Q  -1.3290  18.9$  5.72$  11.16$
  Q  0.6645  11.7$  1.52$  14.27$
  Q  0.6645  10.46$  0.66$  14.55$
  Q  -1.3290  10.99$  1.32$  14.66$
  Q  0.6645  5.37$  18.4$  10.76$
  Q  0.6645  5.91$  18.55$  12.18$
  Q  -1.3290  5.4$  18.74$  11.54$
  Q  0.6645  12.6$  14.69$  18.14$
  Q  0.6645  13.02$  13.92$  19.43$
  Q  -1.3290  13.05$  14.17$  18.6$
  Q  0.6645  11.08$  9.61$  21.11$
  Q  0.6645  11.76$  8.61$  20.11$
  Q  -1.3290  11.57$  8.94$  20.89$
  Q  0.6645  16.04$  8.78$  9.86$
  Q  0.6645  17.49$  8.87$  10.46$
  Q  -1.3290  16.74$  8.49$  10.25$
  Q  0.6645  5.19$  9.74$  20.31$
  Q  0.6645  4.74$  11.17$  20.69$
  Q  -1.3290  5.04$  10.54$  20.18$
  Q  0.6645  2.3$  11.13$  12.92$
  Q  0.6645  3.13$  11.55$  14.04$
  Q  -1.3290  2.5$  11.65$  13.52$
  Q  0.6645  2.83$  5.01$  12.91$
  Q  0.6645  4.22$  4.54$  13.14$
  Q  -1.3290  3.64$  5.06$  12.84$
  Q  0.6645  5.38$  16.68$  16.41$
  Q  0.6645  5.02$  17.39$  15.03$
  Q  -1.3290  5.02$  16.77$  15.62$
  Q  0.6645  14.09$  17.5$  13.06$
  Q  0.6645  14.26$  17.06$  14.51$
  Q  -1.3290  13.85$  17.34$  13.86$
  Q  0.6645  6.02$  12.48$  8.21$
  Q  0.6645  6.21$  12.92$  6.69$
  Q  -1.3290  5.82$  12.86$  7.45$
  Q  0.6645  13.85$  7.51$  7.16$
  Q  0.6645  13.77$  6.9$  8.57$
  Q  -1.3290  13.62$  7.45$  7.96$
  Q  0.6645  6.4$  8.29$  17.45$
  Q  0.6645  6.41$  6.79$  17.37$
  Q  -1.3290  6.62$  7.51$  17.7$
  Q  0.6645  18.11$  6.69$  14.66$
  Q  0.6645  18.89$  5.63$  15.56$
  Q  -1.3290  18.23$  6.13$  15.3$
  Q  0.6645  2.31$  16.28$  10.33$
  Q  0.6645  2.43$  15.21$  11.43$
  Q  -1.3290  2.59$  15.57$  10.67$
  Q  0.6645  0.96$  7.45$  7.44$
  Q  0.6645  1.78$  6.77$  8.72$
  Q  -1.3290  1.42$  6.85$  7.91$
  Q  0.6645  3.59$  15.76$  7.49$
  Q  0.6645  4.91$  16.41$  6.95$
  Q  -1.3290  4.08$  16.36$  7.14$
  Q  0.6645  15.81$  9.57$  14.7$
  Q  0.6645  15.28$  8.81$  15.99$
  Q  -1.3290  15.72$  8.93$  15.26$
  Q  0.6645  17.68$  15.69$  10.3$
  Q  0.6645  17.39$  15.26$  11.7$
  Q  -1.3290  17.25$  15.27$  10.87$
  Q  0.6645  3.72$  10.38$  4.74$
  Q  0.6645  5.12$  10.3$  5.15$
  Q  -1.3290  4.41$  9.96$  4.89$
  Q  0.6645  12.15$  1.35$  6.85$
  Q  0.6645  12.63$  2.86$  7.08$
  Q  -1.3290  12.71$  2.02$  6.87$
  Q  0.6645  8.86$  10.52$  1.34$
  Q  0.6645  9.12$  10.77$  2.81$
  Q  -1.3290  9.3$  10.44$  2.05$
  Q  0.6645  10.07$  7.84$  4.81$
  Q  0.6645  10.13$  6.42$  4.25$
  Q  -1.3290  10.39$  7.21$  4.34$
  Q  0.6645  18.69$  16.94$  12.29$
  Q  0.6645  18.02$  16.68$  13.68$
  Q  -1.3290  18.54$  16.5$  13.01$
  Q  0.6645  12.22$  22.34$  12.12$
  Q  0.6645  11.67$  21.13$  11.12$
  Q  -1.3290  11.96$  21.51$  11.88$
  Q  0.6645  12.76$  20.95$  15.6$
  Q  0.6645  12.51$  22.24$  16.42$
  Q  -1.3290  12.87$  21.49$  16.23$
  Q  0.6645  5.71$  13.86$  16.64$
  Q  0.6645  5.43$  14.68$  15.34$
  Q  -1.3290  5.72$  14.03$  15.81$
  Q  0.6645  9.98$  20.36$  9.54$
  Q  0.6645  10.81$  21.2$  8.61$
  Q  -1.3290  10.49$  21.02$  9.34$
  Q  0.6645  4.93$  6.44$  13.72$
  Q  0.6645  5.01$  7.54$  14.66$
  Q  -1.3290  5.33$  7.02$  14.12$
  Q  0.6645  7.89$  18.54$  9.51$
  Q  0.6645  9.37$  18.34$  9.17$
  Q  -1.3290  8.72$  18.72$  9.52$
  Q  0.6645  5.77$  4.42$  3.68$
  Q  0.6645  7.28$  4.93$  3.71$
  Q  -1.3290  6.63$  4.36$  3.64$
  Q  0.6645  6.82$  4.15$  11.47$
  Q  0.6645  7.33$  5.27$  12.44$
  Q  -1.3290  6.87$  4.95$  11.78$
  Q  0.6645  13.65$  12.05$  5.37$
  Q  0.6645  13.34$  11.67$  6.83$
  Q  -1.3290  13.16$  11.85$  6.02$
  Q  0.6645  11.24$  18.07$  3.87$
  Q  0.6645  11.98$  16.8$  4.01$
  Q  -1.3290  11.64$  17.5$  4.3$
  Q  0.6645  15.53$  13.05$  16.65$
  Q  0.6645  14.45$  13$  15.43$
  Q  -1.3290  15.09$  12.76$  15.95$
  Q  0.6645  3.26$  14.61$  8.97$
  Q  0.6645  4.11$  13.63$  7.98$
  Q  -1.3290  3.4$  14.09$  8.28$
  Q  0.6645  2.49$  14.88$  14.91$
  Q  0.6645  3.17$  15.86$  15.84$
  Q  -1.3290  2.67$  15.22$  15.66$
  Q  0.6645  10.46$  3.34$  14.83$
  Q  0.6645  10.31$  4.46$  16.05$
  Q  -1.3290  10.14$  4.03$  15.29$
  Q  0.6645  13.33$  1.98$  10.17$
  Q  0.6645  13.83$  1.83$  8.64$
  Q  -1.3290  13.85$  1.71$  9.5$
  Q  0.6645  16.35$  14.05$  6.47$
  Q  0.6645  17.84$  13.68$  6.44$
  Q  -1.3290  17.1$  13.87$  6.83$
  Q  0.6645  8.8$  20.47$  13.85$
  Q  0.6645  10.11$  19.7$  14.12$
  Q  -1.3290  9.56$  20.33$  14.23$
  Q  0.6645  7.58$  13.05$  1.04$
  Q  0.6645  6.46$  14.02$  1.54$
  Q  -1.3290  7.24$  13.7$  1.51$
  Q  0.6645  18.09$  14.86$  17.53$
  Q  0.6645  18.02$  16.38$  17.9$
  Q  -1.3290  18.02$  15.54$  18.02$
  Q  0.6645  6.02$  5.18$  7.3$
  Q  0.6645  6.12$  4.24$  8.57$
  Q  -1.3290  5.89$  4.47$  7.79$
  Q  0.6645  6.1$  16.92$  9.03$
  Q  0.6645  5.94$  18.31$  8.62$
  Q  -1.3290  6.12$  17.71$  9.15$
  Q  0.6645  20.03$  12.1$  13.54$
  Q  0.6645  18.75$  12.66$  14.14$
  Q  -1.3290  19.21$  12.27$  13.56$
  Q  0.6645  2.75$  6.98$  6.5$
  Q  0.6645  3.61$  7.76$  5.56$
  Q  -1.3290  3.41$  7.11$  6.02$
  Q  0.6645  6.99$  20.48$  17.62$
  Q  0.6645  7.99$  19.79$  16.57$
  Q  -1.3290  7.23$  19.93$  16.98$
  Q  0.6645  19.36$  8.13$  17.57$
  Q  0.6645  18.37$  9.28$  17.69$
  Q  -1.3290  19.07$  8.89$  17.41$
  Q  0.6645  7.57$  16.01$  3.85$
  Q  0.6645  6.57$  15.5$  2.89$
  Q  -1.3290  6.94$  16.09$  3.35$
  Q  0.6645  17.64$  15.24$  8.02$
  Q  0.6645  18.73$  16.35$  8.05$
  Q  -1.3290  18.01$  15.96$  8.26$
  Q  0.6645  7.02$  1.65$  10.74$
  Q  0.6645  5.54$  2.05$  10.65$
  Q  -1.3290  6.3$  2.01$  11.02$
  Q  0.6645  12.13$  20.24$  13.32$
  Q  0.6645  12.58$  18.9$  14.08$
  Q  -1.3290  12.4$  19.75$  14$
  Q  0.6645  12.89$  13.81$  22.19$
  Q  0.6645  13.53$  12.62$  21.63$
  Q  -1.3290  13.03$  13.26$  21.6$
  Q  0.6645  13.84$  4.45$  13.87$
  Q  0.6645  14.27$  5.59$  12.99$
  Q  -1.3290  14.14$  4.79$  13.17$
  Q  0.6645  3.78$  2.15$  13.79$
  Q  0.6645  5.35$  2.25$  13.86$
  Q  -1.3290  4.55$  2.53$  13.86$
  Q  0.6645  16.18$  20.81$  10.21$
  Q  0.6645  15.15$  21.96$  10.25$
  Q  -1.3290  15.8$  21.49$  10.53$
  Q  0.6645  7.51$  7.84$  21.62$
  Q  0.6645  7.91$  8.64$  20.51$
  Q  -1.3290  7.36$  8.34$  21.01$
  Q  0.6645  11.57$  4.15$  17.86$
  Q  0.6645  10.26$  4.67$  18.65$
  Q  -1.3290  10.88$  4.67$  18$
  Q  0.6645  14.2$  7.26$  4.57$
  Q  0.6645  15.18$  6.48$  5.51$
  Q  -1.3290  14.65$  7.13$  5.3$
  Q  0.6645  12.15$  4.36$  5.91$
  Q  0.6645  11.71$  4.94$  7.31$
  Q  -1.3290  12.22$  4.52$  6.76$
  Q  0.6645  7.92$  2.41$  17.34$
  Q  0.6645  8.51$  3.04$  15.95$
  Q  -1.3290  8$  2.59$  16.46$
  Q  0.6645  9.17$  12.63$  17.96$
  Q  0.6645  9.79$  12.86$  19.34$
  Q  -1.3290  9.42$  13.09$  18.6$
  Q  0.6645  15.56$  21.48$  12.77$
  Q  0.6645  14.36$  20.73$  13.6$
  Q  -1.3290  15.07$  21.22$  13.47$
  Q  0.6645  2$  13.4$  16.67$
  Q  0.6645  1.1$  12.27$  17.06$
  Q  -1.3290  1.82$  12.58$  16.82$
  Q  0.6645  9.68$  2.85$  11.74$
  Q  0.6645  9.72$  4.17$  12.53$
  Q  -1.3290  9.74$  3.69$  11.83$
  Q  0.6645  16.91$  9.22$  19.74$
  Q  0.6645  16.31$  9.78$  18.49$
  Q  -1.3290  16.88$  9.73$  19.08$
  Q  0.6645  17.25$  18.12$  14.98$
  Q  0.6645  16.52$  16.91$  15.73$
  Q  -1.3290  17.15$  17.33$  15.33$
  Q  0.6645  13.26$  19.39$  5.84$
  Q  0.6645  13.52$  19.3$  7.41$
  Q  -1.3290  13.1$  19.49$  6.7$
  Q  0.6645  13.77$  6.14$  2.54$
  Q  0.6645  13.66$  5.4$  1.24$
  Q  -1.3290  14.04$  5.79$  1.84$
  Q  0.6645  13.34$  14.99$  3.3$
  Q  0.6645  11.99$  15.23$  2.37$
  Q  -1.3290  12.5$  15.22$  3.09$
  Q  0.6645  15.51$  2.67$  10.83$
  Q  0.6645  15.48$  3.51$  12.11$
  Q  -1.3290  15.72$  2.86$  11.61$
  Q  0.6645  10.27$  3.56$  7.27$
  Q  0.6645  9.16$  2.9$  8$
  Q  -1.3290  9.52$  3.53$  7.58$
  Q  0.6645  9.21$  18.47$  18.81$
  Q  0.6645  8.81$  17.17$  19.53$
  Q  -1.3290  9.03$  17.96$  19.49$
  Q  0.6645  10.21$  0.46$  11.99$
  Q  0.6645  8.7$  0.37$  12.31$
  Q  -1.3290  9.44$  0.77$  12.04$
  Q  0.6645  8.56$  4.7$  5.89$
  Q  0.6645  7.71$  5.88$  5.59$
  Q  -1.3290  8.32$  5.34$  5.45$
  Q  0.6645  12.85$  8.77$  2.92$
  Q  0.6645  12.16$  7.82$  3.67$
  Q  -1.3290  12.81$  8.06$  3.25$
  Q  0.6645  7.54$  12.56$  3.54$
  Q  0.6645  7.8$  11.65$  4.67$
  Q  -1.3290  7.64$  11.81$  3.88$
  Q  0.6645  10.17$  18.75$  16.5$
  Q  0.6645  10.24$  20.22$  17.08$
  Q  -1.3290  10.04$  19.37$  17.05$
  Q  0.6645  20.25$  15.83$  13.28$
  Q  0.6645  21.21$  16.91$  13.68$
  Q  -1.3290  21$  16.12$  13.5$
  Q  0.6645  6.45$  3.1$  6.59$
  Q  0.6645  6.8$  2.74$  5.14$
  Q  -1.3290  6.64$  2.58$  5.92$
  Q  0.6645  14.14$  5.07$  7.11$
  Q  0.6645  15.42$  4.22$  6.79$
  Q  -1.3290  14.97$  4.84$  7.16$
  Q  0.6645  8.17$  16.77$  16.31$
  Q  0.6645  8.97$  16.33$  14.98$
  Q  -1.3290  8.83$  16.77$  15.71$
  Q  0.6645  6.36$  7.14$  7.78$
  Q  0.6645  5.81$  7.26$  6.32$
  Q  -1.3290  6.35$  7.01$  6.9$
  Q  0.6645  11.32$  6.88$  18.24$
  Q  0.6645  10.69$  8.34$  18.31$
  Q  -1.3290  11.29$  7.73$  18.18$
  Q  0.6645  14.53$  3.19$  15.79$
  Q  0.6645  13.13$  3.27$  16.18$
  Q  -1.3290  13.8$  3.56$  15.78$
  Q  0.6645  1.82$  13.64$  13.1$
  Q  0.6645  0.94$  14.94$  13.33$
  Q  -1.3290  1.65$  14.49$  13.13$
  Q  0.6645  2.53$  13.25$  18.64$
  Q  0.6645  3.86$  13.66$  18.59$
  Q  -1.3290  3.11$  13.75$  18.85$
  Q  0.6645  3.17$  7.54$  17.39$
  Q  0.6645  3.54$  7.33$  18.89$
  Q  -1.3290  3.04$  7.48$  18.23$
  Q  0.6645  8.27$  3.93$  2.62$
  Q  0.6645  8.97$  4.59$  1.53$
  Q  -1.3290  8.95$  4.09$  2.18$
  Q  0.6645  11.15$  6.63$  1.63$
  Q  0.6645  10.99$  7.2$  0.28$
  Q  -1.3290  11.09$  6.57$  0.82$
  Q  0.6645  7.45$  10.85$  21.43$
  Q  0.6645  8.75$  11.56$  21.37$
  Q  -1.3290  7.99$  11.46$  21.67$
  Q  0.6645  8.23$  5.45$  20.62$
  Q  0.6645  7.84$  6.02$  19.18$
  Q  -1.3290  8.3$  5.55$  19.76$
  Q  0.6645  7.91$  0.61$  8.28$
  Q  0.6645  8.96$  0.55$  9.37$
  Q  -1.3290  8.43$  0.92$  8.85$
  Q  0.6645  20.17$  11.39$  7.48$
  Q  0.6645  18.88$  10.6$  7.38$
  Q  -1.3290  19.7$  10.71$  7.29$
  Q  0.6645  11.83$  20.82$  6.7$
  Q  0.6645  10.3$  21.19$  6.67$
  Q  -1.3290  11.12$  21.36$  6.67$
  Q  0.6645  16.84$  14.05$  14.76$
  Q  0.6645  18.08$  14.76$  14.9$
  Q  -1.3290  17.62$  14.09$  14.96$
  Q  0.6645  5.12$  6.88$  9.93$
  Q  0.6645  6.44$  6.56$  10.27$
  Q  -1.3290  5.9$  7.09$  9.98$
  Q  0.6645  18.45$  9.89$  4.43$
  Q  0.6645  19.71$  10.2$  5.18$
  Q  -1.3290  19.25$  10.15$  4.5$
  Q  0.6645  15.12$  18.19$  9.46$
  Q  0.6645  15.67$  18.2$  8.07$
  Q  -1.3290  15.04$  18.24$  8.66$
  Q  0.6645  3.49$  5.91$  11.14$
  Q  0.6645  3.29$  5.33$  9.75$
  Q  -1.3290  3.33$  5.96$  10.29$
  Q  0.6645  15.69$  14.52$  2.34$
  Q  0.6645  15.11$  16.05$  2.4$
  Q  -1.3290  15.11$  15.16$  2.48$
  Q  0.6645  19.86$  9.23$  10.34$
  Q  0.6645  19.15$  10.51$  10.64$
  Q  -1.3290  19.29$  9.69$  10.74$
  Q  0.6645  19.76$  18.47$  16.89$
  Q  0.6645  18.96$  17.44$  16.29$
  Q  -1.3290  19.56$  17.68$  16.8$
  Q  0.6645  7.13$  15.61$  7.91$
  Q  0.6645  7.41$  16.67$  6.86$
  Q  -1.3290  6.98$  16.1$  7.21$
*
