! NoMOPrint PrintBasis #MINIPRINT SMALLPRINT LARGEPRINT
! ALLPOP XYZFILE
#! BP86 3-21G   TightSCF
! ENGRAD
! B3LYP NormalPNO PModel #DecontractAux
#! VerySlowConv 
 %maxcore 5000
 %scf  maxiter   500  end 

%pal
    nprocs 32
end

%basis
    NewGTO O    # New basis for oxygen
        "aug-cc-pVTZ"
    end
    NewGTO C    # New basis for carbon
        "aug-cc-pVTZ"
    end
    NewGTO H    # New basis for hydrogen
        "cc-pVTZ"
    end
end

* xyz 0   1
  C  10.21  9.95  12.04  #1
  H  9.53  9.21  11.51  #2
  H  9.74  10.96  12.04  #3
  C  11.61  10.22  11.42  #4
  H  11.94  11.14  11.89  #5
  H  12.4  9.52  11.56  #6
  C  11.5  10.44  9.88  #7
  H  10.89  9.61  9.48  #8
  H  12.45  10.44  9.4  #9
  C  10.84  11.75  9.36  #10
  H  10.15  12.07  10.09  #11
  H  10.38  11.67  8.37  #12
  O  11.86  12.78  9.27  #13
  H  12.05  13.2  8.41  #14
  O  10.24  9.61  13.49  #15
  H  10.58  8.77  13.6  #16
  O  14.09  12.54  11  #17
  H  13.25  12.64  10.46  #18
  H  14.22  11.59  11.23  #19
  O  12.27  7.61  14.2  #20
  H  11.94  7.17  14.96  #21
  H  12.53  8.45  14.56  #22
  O  9.96  7.81  6.9  #23
  H  10.22  7.19  6.25  #24
  H  10.09  7.43  7.79  #25
  O  10.84  10.42  6.28  #26
  H  10.81  9.55  6.68  #27
  H  11.75  10.7  6.11  #28
  O  7.12  11.32  12.2  #29
  H  7.72  12.08  12.14  #30
  H  7.05  11.02  11.28  #31
  O  10.99  5.93  4.79  #32
  H  10.73  6.56  4.09  #33
  H  10.95  5.05  4.35  #34
  O  8.68  12.55  5.89  #35
  H  8.16  11.76  5.81  #36
  H  9.6  12.39  5.55  #37
  O  8.33  6.61  14.14  #38
  H  8.15  7.57  14.18  #39
  H  7.61  6.25  14.72  #40
  O  7.02  9  14.32  #41
  H  7.26  9.73  13.72  #42
  H  6.23  8.76  13.79  #43
  O  16.35  10.68  8.99  #44
  H  16.68  11.48  9.47  #45
  H  15.52  10.41  9.42  #46
  O  10.23  15.1  10.13  #47
  H  11.02  14.67  9.83  #48
  H  9.63  14.8  9.41  #49
  O  10.97  6.61  9.18  #50
  H  11.3  5.84  8.69  #51
  H  10.19  6.3  9.68  #52
  O  8.03  14.09  11.76  #53
  H  7.23  13.99  11.18  #54
  H  8.7  14.55  11.31  #55
  O  12.51  5.71  11.76  #56
  H  12.05  6.24  11.09  #57
  H  12.21  6.01  12.65  #58
  O  7.54  9.27  6.73  #59
  H  8.41  8.86  6.79  #60
  H  7.22  8.96  5.89  #61
  O  10.48  4.75  14.84  #62
  H  9.82  5.06  14.22  #63
  H  10.52  5.43  15.53  #64
  O  12.02  14.49  7.21  #65
  H  11.24  15.05  7.34  #66
  H  12.74  14.85  7.78  #67
  O  4.23  11.05  11.45  #68
  H  4.13  10.1  11.67  #69
  H  5.17  11.24  11.78  #70
  O  11.75  6.68  16.79  #71
  H  12.26  6.7  17.54  #72
  H  11.13  7.37  16.96  #73
  O  14.81  9.62  11.14  #74
  H  14.5  8.76  10.89  #75
  H  15.52  9.51  11.79  #76
  O  13.25  11.51  5.4  #77
  H  13.75  11.83  6.14  #78
  H  13.87  11.21  4.72  #79
  O  14.91  12.76  7.47  #80
  H  14.79  13.48  8.11  #81
  H  15.5  12.08  7.82  #82
  O  11.51  12.46  15.05  #83
  H  11.06  13.2  14.64  #84
  H  10.75  11.91  15.19  #85
  O  8.69  4.41  6.77  #86
  H  8.1  4.96  7.3  #87
  H  9.57  4.78  6.89  #88
  O  15.24  7.25  13.92  #89
  H  15.03  6.64  13.19  #90
  H  14.45  7.52  14.45  #91
  O  16  14.55  12.02  #92
  H  16.78  14.45  12.55  #93
  H  15.74  13.73  11.71  #94
  O  9.31  10.76  15.71  #95
  H  9.4  10.17  14.95  #96
  H  8.37  10.79  15.85  #97
  O  13.15  10.08  15.5  #98
  H  12.7  10.88  15.81  #99
  H  13.99  10.1  15.97  #100
  O  7.22  10.91  9.59  #101
  H  7.08  11.72  9.1  #102
  H  6.99  10.27  8.88  #103
  O  9.42  9.7  3.67  #104
  H  9.67  10.08  4.53  #105
  H  10.09  10.06  3.05  #106
  O  14.52  15.08  8.98  #107
  H  14.71  14.41  9.61  #108
  H  15.42  15.38  8.74  #109
  Q  0.6645  4.89$  13.85$  11.72$
  Q  0.6645  5.04$  13.2$  10.25$
  Q  -1.3290  5.21$  13.77$  10.93$
  Q  0.6645  12.34$  11.3$  18.21$
  Q  0.6645  11.05$  10.61$  17.76$
  Q  -1.3290  11.51$  11.25$  18.06$
  Q  0.6645  11.24$  15.25$  16.02$
  Q  0.6645  11.5$  16.36$  14.98$
  Q  -1.3290  11.12$  15.67$  15.27$
  Q  0.6645  6.43$  6.65$  8.86$
  Q  0.6645  7.24$  7.4$  7.8$
  Q  -1.3290  6.92$  6.74$  8.18$
  Q  0.6645  15.32$  14.06$  16.04$
  Q  0.6645  16.49$  14.47$  16.96$
  Q  -1.3290  15.74$  14.08$  16.75$
  Q  0.6645  14.97$  8.78$  17.43$
  Q  0.6645  15.92$  9.92$  16.86$
  Q  -1.3290  15.41$  9.24$  16.82$
  Q  0.6645  5.55$  9.85$  19.87$
  Q  0.6645  6.23$  9.91$  21.21$
  Q  -1.3290  6.07$  10.18$  20.43$
  Q  0.6645  19.08$  13.19$  13.69$
  Q  0.6645  17.78$  12.26$  13.66$
  Q  -1.3290  18.33$  12.9$  13.42$
  Q  0.6645  13.56$  2$  8.87$
  Q  0.6645  12.25$  2.39$  9.5$
  Q  -1.3290  12.83$  2.43$  8.9$
  Q  0.6645  0.32$  8.09$  9.63$
  Q  0.6645  1.51$  7.19$  9.82$
  Q  -1.3290  0.99$  7.68$  9.35$
  Q  0.6645  9.25$  17.79$  12.74$
  Q  0.6645  9.77$  17.28$  14.13$
  Q  -1.3290  9.74$  17.8$  13.45$
  Q  0.6645  5.47$  17.58$  7.65$
  Q  0.6645  5.29$  17.52$  9.27$
  Q  -1.3290  5.25$  17.85$  8.46$
  Q  0.6645  5.07$  7.93$  11.84$
  Q  0.6645  4.1$  8.38$  13.08$
  Q  -1.3290  4.76$  8.43$  12.5$
  Q  0.6645  6.62$  13.17$  15.73$
  Q  0.6645  6.66$  14.49$  14.95$
  Q  -1.3290  6.32$  13.88$  15.4$
  Q  0.6645  5.31$  15.51$  16.08$
  Q  0.6645  4.39$  16.47$  16.67$
  Q  -1.3290  5.13$  16.19$  16.52$
  Q  0.6645  15.12$  14.26$  1.42$
  Q  0.6645  16.23$  14.21$  0.44$
  Q  -1.3290  15.53$  13.94$  0.77$
  Q  0.6645  11.59$  1.68$  6.9$
  Q  0.6645  10.14$  1.25$  6.78$
  Q  -1.3290  10.96$  1.28$  6.55$
  Q  0.6645  19.07$  8.74$  4.64$
  Q  0.6645  18.31$  9.36$  5.73$
  Q  -1.3290  18.41$  9.15$  4.95$
  Q  0.6645  10.71$  15.87$  3.94$
  Q  0.6645  10.14$  16.45$  5.17$
  Q  -1.3290  10.36$  15.84$  4.69$
  Q  0.6645  3.68$  16.94$  6.28$
  Q  0.6645  4.46$  16.05$  5.34$
  Q  -1.3290  4.35$  16.68$  5.9$
  Q  0.6645  7.8$  3.26$  4.97$
  Q  0.6645  7.71$  3.26$  3.39$
  Q  -1.3290  7.56$  2.99$  4.19$
  Q  0.6645  8.8$  14.04$  7.14$
  Q  0.6645  8.59$  15.47$  7.44$
  Q  -1.3290  8.79$  14.65$  7.65$
  Q  0.6645  18.94$  10.16$  16.45$
  Q  0.6645  18.78$  11.66$  16.02$
  Q  -1.3290  19.1$  10.99$  16.44$
  Q  0.6645  16.81$  7.49$  6.07$
  Q  0.6645  18.25$  6.91$  6.52$
  Q  -1.3290  17.41$  6.91$  6.3$
  Q  0.6645  4.22$  1.87$  11.36$
  Q  0.6645  5.36$  1.28$  12.18$
  Q  -1.3290  5.01$  1.6$  11.46$
  Q  0.6645  6.05$  5.8$  2.94$
  Q  0.6645  7.63$  5.76$  3.21$
  Q  -1.3290  6.86$  5.5$  2.92$
  Q  0.6645  4.42$  2.52$  16.32$
  Q  0.6645  5.21$  3.6$  15.61$
  Q  -1.3290  4.55$  3.07$  15.66$
  Q  0.6645  3.59$  12.06$  17.64$
  Q  0.6645  3.55$  10.54$  17.3$
  Q  -1.3290  3.9$  11.32$  17.35$
  Q  0.6645  9.05$  17.45$  18.02$
  Q  0.6645  10.1$  18.45$  18.29$
  Q  -1.3290  9.36$  18.21$  18.02$
  Q  0.6645  9.53$  19.5$  15.99$
  Q  0.6645  9.8$  19.55$  14.41$
  Q  -1.3290  9.77$  19.83$  15.23$
  Q  0.6645  2.97$  10.15$  14.64$
  Q  0.6645  2.42$  8.65$  14.58$
  Q  -1.3290  2.9$  9.3$  14.84$
  Q  0.6645  19.1$  10.29$  7.68$
  Q  0.6645  17.68$  9.83$  8.03$
  Q  -1.3290  18.4$  9.79$  7.6$
  Q  0.6645  16.65$  18.88$  10.27$
  Q  0.6645  18.13$  18.65$  10.49$
  Q  -1.3290  17.41$  18.68$  10.05$
  Q  0.6645  3.56$  10.13$  8.51$
  Q  0.6645  3.89$  11.22$  9.54$
  Q  -1.3290  3.49$  10.89$  8.88$
  Q  0.6645  16.43$  7.09$  9.67$
  Q  0.6645  17.65$  6.43$  9.25$
  Q  -1.3290  17.23$  7.04$  9.62$
  Q  0.6645  18.79$  15.07$  9.01$
  Q  0.6645  19.16$  15.25$  10.47$
  Q  -1.3290  19.1$  14.83$  9.77$
  Q  0.6645  12.68$  20.62$  13.16$
  Q  0.6645  12.97$  19.45$  14.13$
  Q  -1.3290  12.84$  20.23$  13.9$
  Q  0.6645  2.63$  3.93$  13.3$
  Q  0.6645  2.66$  3.31$  14.74$
  Q  -1.3290  2.41$  3.39$  13.93$
  Q  0.6645  7.69$  17.23$  10.65$
  Q  0.6645  9.15$  16.88$  10.35$
  Q  -1.3290  8.53$  17.28$  10.75$
  Q  0.6645  9.9$  0.47$  12.91$
  Q  0.6645  10.09$  -0.43$  14.1$
  Q  -1.3290  10.15$  0.28$  13.69$
  Q  0.6645  8.53$  21.4$  5.01$
  Q  0.6645  7.78$  20.24$  5.69$
  Q  -1.3290  8.44$  20.73$  5.53$
  Q  0.6645  5.7$  7.12$  20.13$
  Q  0.6645  6.45$  6.19$  21.13$
  Q  -1.3290  6$  6.38$  20.43$
  Q  0.6645  17.61$  8.95$  12.49$
  Q  0.6645  16.64$  8.34$  13.58$
  Q  -1.3290  16.97$  8.94$  13.04$
  Q  0.6645  13.51$  18.08$  8.35$
  Q  0.6645  13.5$  16.88$  9.41$
  Q  -1.3290  13.21$  17.62$  9.03$
  Q  0.6645  15.99$  20.65$  4.87$
  Q  0.6645  16.12$  19.35$  3.92$
  Q  -1.3290  16.09$  19.82$  4.69$
  Q  0.6645  4.08$  11.99$  4.84$
  Q  0.6645  4.3$  11.92$  3.26$
  Q  -1.3290  4.12$  11.6$  4.07$
  Q  0.6645  6.33$  19.45$  6.8$
  Q  0.6645  5.65$  18.55$  5.75$
  Q  -1.3290  6.29$  18.96$  6.09$
  Q  0.6645  16.37$  5.33$  16.31$
  Q  0.6645  15.64$  6.31$  15.56$
  Q  -1.3290  15.85$  5.94$  16.27$
  Q  0.6645  3.61$  13.3$  13.69$
  Q  0.6645  4.9$  13.89$  14.03$
  Q  -1.3290  4.19$  13.87$  13.62$
  Q  0.6645  11.74$  3.52$  19.07$
  Q  0.6645  11.86$  3.55$  20.57$
  Q  -1.3290  11.71$  3.9$  19.82$
  Q  0.6645  14.91$  6.32$  22.67$
  Q  0.6645  14.35$  6.22$  21.26$
  Q  -1.3290  14.69$  5.92$  21.96$
  Q  0.6645  17.39$  18.64$  6.3$
  Q  0.6645  17.68$  17.48$  5.43$
  Q  -1.3290  17.84$  17.97$  6.06$
  Q  0.6645  14.31$  17.44$  6.43$
  Q  0.6645  15.24$  18.7$  6.18$
  Q  -1.3290  14.8$  18.13$  6.66$
  Q  0.6645  4.38$  12$  7.06$
  Q  0.6645  3.27$  13.02$  6.56$
  Q  -1.3290  4.05$  12.6$  6.55$
  Q  0.6645  21.53$  10.7$  9.59$
  Q  0.6645  20.52$  10.05$  10.54$
  Q  -1.3290  21.3$  10.19$  10.21$
  Q  0.6645  4.59$  7.53$  9.69$
  Q  0.6645  4.37$  6.43$  10.78$
  Q  -1.3290  4.81$  6.91$  10.23$
  Q  0.6645  6.81$  13.52$  5.39$
  Q  0.6645  5.52$  13.86$  4.58$
  Q  -1.3290  6.35$  13.64$  4.69$
  Q  0.6645  12.68$  19.66$  4.51$
  Q  0.6645  11.44$  18.83$  4.19$
  Q  -1.3290  12.25$  18.97$  4.39$
  Q  0.6645  5.9$  15.27$  18.1$
  Q  0.6645  6.41$  14.18$  19.04$
  Q  -1.3290  6.24$  14.95$  18.8$
  Q  0.6645  12.73$  0.97$  11.52$
  Q  0.6645  12.78$  -0.58$  11.05$
  Q  -1.3290  13.06$  0.17$  11.45$
  Q  0.6645  3.13$  14.45$  4.6$
  Q  0.6645  3.77$  15.26$  3.47$
  Q  -1.3290  3.78$  14.83$  4.18$
  Q  0.6645  12.62$  9.03$  22.11$
  Q  0.6645  11.76$  7.87$  22.52$
  Q  -1.3290  12.11$  8.42$  21.96$
  Q  0.6645  18.19$  10.17$  10.87$
  Q  0.6645  18.23$  8.83$  10.25$
  Q  -1.3290  18.47$  9.43$  10.79$
  Q  0.6645  8.61$  15.74$  3.94$
  Q  0.6645  7.17$  15.2$  3.83$
  Q  -1.3290  7.8$  15.75$  3.66$
  Q  0.6645  15.36$  16.18$  12.97$
  Q  0.6645  13.9$  16.83$  13.04$
  Q  -1.3290  14.72$  16.69$  13.28$
  Q  0.6645  16.6$  5.17$  12.48$
  Q  0.6645  17.15$  6.31$  11.58$
  Q  -1.3290  17.2$  5.7$  12.19$
  Q  0.6645  10.14$  12.56$  21.09$
  Q  0.6645  10.76$  12.11$  19.74$
  Q  -1.3290  10.31$  12.02$  20.46$
  Q  0.6645  4.46$  4.1$  7.74$
  Q  0.6645  4.69$  4.5$  9.17$
  Q  -1.3290  4.59$  3.95$  8.56$
  Q  0.6645  15.64$  16.34$  4.8$
  Q  0.6645  16.63$  15.19$  5.02$
  Q  -1.3290  16.36$  15.92$  4.7$
  Q  0.6645  4.45$  8.7$  16$
  Q  0.6645  6.07$  8.94$  16.06$
  Q  -1.3290  5.27$  8.63$  16.3$
  Q  0.6645  20.3$  7.32$  12.87$
  Q  0.6645  20.58$  8.46$  11.94$
  Q  -1.3290  20.77$  7.74$  12.33$
  Q  0.6645  8.98$  8.21$  -0.22$
  Q  0.6645  8.57$  6.92$  0.62$
  Q  -1.3290  8.78$  7.76$  0.46$
  Q  0.6645  17.96$  10.34$  3.53$
  Q  0.6645  17.26$  10.78$  2.02$
  Q  -1.3290  17.87$  10.68$  2.68$
  Q  0.6645  14.45$  6.89$  18.8$
  Q  0.6645  15.71$  6.71$  17.9$
  Q  -1.3290  15.27$  7.01$  18.56$
  Q  0.6645  1.72$  11.9$  8.38$
  Q  0.6645  0.54$  12.76$  8.79$
  Q  -1.3290  1.02$  12.35$  8.24$
  Q  0.6645  13.8$  11.14$  20.01$
  Q  0.6645  12.88$  9.97$  19.95$
  Q  -1.3290  13.55$  10.39$  19.75$
  Q  0.6645  12.13$  2.55$  4.02$
  Q  0.6645  10.87$  2.68$  4.71$
  Q  -1.3290  11.48$  2.98$  4.27$
  Q  0.6645  14.11$  13.15$  21.64$
  Q  0.6645  12.88$  13.01$  20.81$
  Q  -1.3290  13.55$  12.72$  21.23$
  Q  0.6645  2.12$  9.19$  10.66$
  Q  0.6645  0.86$  9.37$  11.33$
  Q  -1.3290  1.61$  9.07$  11.28$
  Q  0.6645  4.76$  17.22$  13.7$
  Q  0.6645  3.96$  15.89$  13.5$
  Q  -1.3290  4.19$  16.69$  13.32$
  Q  0.6645  16.08$  12.92$  5.78$
  Q  0.6645  16.95$  13.41$  4.55$
  Q  -1.3290  16.7$  13.34$  5.35$
  Q  0.6645  14.44$  5.8$  7.5$
  Q  0.6645  13.33$  6.67$  6.59$
  Q  -1.3290  13.69$  6.27$  7.28$
  Q  0.6645  7.97$  15.14$  13.25$
  Q  0.6645  8.87$  15.14$  14.56$
  Q  -1.3290  8.16$  15.27$  14.06$
  Q  0.6645  8.75$  13.15$  0.92$
  Q  0.6645  9.04$  14.29$  -0.15$
  Q  -1.3290  9.24$  13.63$  0.38$
  Q  0.6645  18.13$  12.98$  10.18$
  Q  0.6645  17.79$  12.64$  11.54$
  Q  -1.3290  17.76$  12.51$  10.75$
  Q  0.6645  18.24$  12.9$  2.76$
  Q  0.6645  17.9$  14.18$  2.1$
  Q  -1.3290  17.98$  13.69$  2.76$
  Q  0.6645  18.66$  3.52$  12.74$
  Q  0.6645  19.19$  2.07$  12.48$
  Q  -1.3290  18.6$  2.71$  12.56$
  Q  0.6645  12$  2.8$  16.38$
  Q  0.6645  11.8$  1.57$  17.29$
  Q  -1.3290  11.87$  2.42$  17.12$
  Q  0.6645  6.04$  16.65$  2.88$
  Q  0.6645  4.74$  17.56$  2.65$
  Q  -1.3290  5.35$  16.95$  2.47$
  Q  0.6645  16.42$  10.73$  14.03$
  Q  0.6645  16$  12.16$  14.77$
  Q  -1.3290  16.51$  11.48$  14.52$
  Q  0.6645  11.66$  17.17$  12.28$
  Q  0.6645  12.79$  18.02$  11.51$
  Q  -1.3290  12.44$  17.55$  12.17$
  Q  0.6645  14.46$  14.06$  13.71$
  Q  0.6645  13.33$  13.26$  14.45$
  Q  -1.3290  14.09$  13.67$  14.36$
  Q  0.6645  7.03$  11.83$  17.62$
  Q  0.6645  5.82$  11.11$  17.11$
  Q  -1.3290  6.63$  11.38$  17.06$
  Q  0.6645  19.49$  14.75$  6.94$
  Q  0.6645  18.39$  13.87$  6.55$
  Q  -1.3290  19.18$  14.05$  6.63$
  Q  0.6645  14.62$  17.09$  2.58$
  Q  0.6645  16.05$  17.35$  2.28$
  Q  -1.3290  15.3$  17.55$  2.6$
  Q  0.6645  6.93$  2.63$  17.64$
  Q  0.6645  5.86$  3.1$  18.67$
  Q  -1.3290  6.53$  2.67$  18.39$
  Q  0.6645  8.13$  17.8$  6.58$
  Q  0.6645  9.63$  18.12$  6.72$
  Q  -1.3290  8.95$  17.65$  6.78$
  Q  0.6645  7.54$  3.86$  15.44$
  Q  0.6645  7.01$  4.74$  16.67$
  Q  -1.3290  7.01$  4.38$  15.87$
  Q  0.6645  11.02$  12.34$  1.21$
  Q  0.6645  10.9$  12.21$  2.75$
  Q  -1.3290  11$  11.93$  1.95$
  Q  0.6645  4.06$  8.2$  7.24$
  Q  0.6645  2.77$  8.06$  8.18$
  Q  -1.3290  3.6$  8.26$  7.98$
  Q  0.6645  12.5$  7.19$  20.22$
  Q  0.6645  12.56$  5.74$  19.69$
  Q  -1.3290  12.72$  6.57$  19.7$
  Q  0.6645  19.65$  4.63$  9.67$
  Q  0.6645  19.9$  5.75$  8.64$
  Q  -1.3290  19.54$  5.06$  8.94$
  Q  0.6645  2.18$  5.81$  11.82$
  Q  0.6645  2.07$  4.65$  10.77$
  Q  -1.3290  2.31$  5.42$  11.05$
  Q  0.6645  11.38$  16.56$  1.57$
  Q  0.6645  10.56$  15.28$  1.62$
  Q  -1.3290  11.11$  15.83$  1.95$
  Q  0.6645  7.18$  12.54$  3.17$
  Q  0.6645  8.31$  11.47$  3.03$
  Q  -1.3290  7.67$  11.95$  2.77$
  Q  0.6645  15.9$  20.17$  12.22$
  Q  0.6645  15.29$  18.68$  12.59$
  Q  -1.3290  15.69$  19.3$  12.14$
  Q  0.6645  13.31$  3.27$  6.46$
  Q  0.6645  14.74$  2.64$  6.28$
  Q  -1.3290  13.98$  2.96$  6.03$
  Q  0.6645  4.09$  7.94$  19.36$
  Q  0.6645  5.17$  8.36$  18.25$
  Q  -1.3290  4.8$  8.27$  19.05$
  Q  0.6645  8.42$  12.18$  19.65$
  Q  0.6645  6.99$  11.77$  19.65$
  Q  -1.3290  7.64$  12.31$  19.49$
  Q  0.6645  9.07$  14.89$  18.2$
  Q  0.6645  7.84$  15.59$  18.51$
  Q  -1.3290  8.67$  15.52$  18.49$
  Q  0.6645  1.91$  11.97$  13.37$
  Q  0.6645  3.3$  11.46$  12.92$
  Q  -1.3290  2.71$  11.68$  13.48$
  Q  0.6645  19.95$  12.29$  7.51$
  Q  0.6645  21.33$  11.66$  7.47$
  Q  -1.3290  20.51$  11.71$  7.68$
  Q  0.6645  20.84$  13.69$  10.21$
  Q  0.6645  22.04$  13.2$  11.16$
  Q  -1.3290  21.67$  13.55$  10.45$
  Q  0.6645  17.34$  6.15$  4.63$
  Q  0.6645  16.84$  6.63$  3.16$
  Q  -1.3290  17.06$  6.09$  3.79$
  Q  0.6645  7.2$  10.32$  1.33$
  Q  0.6645  7.6$  8.9$  0.86$
  Q  -1.3290  7.06$  9.58$  0.97$
  Q  0.6645  21.61$  8.69$  13.86$
  Q  0.6645  20.64$  9.46$  14.69$
  Q  -1.3290  21.35$  9.39$  14.23$
  Q  0.6645  15.87$  4.3$  2.93$
  Q  0.6645  15.1$  3.72$  4.07$
  Q  -1.3290  15.32$  3.81$  3.27$
  Q  0.6645  12.01$  12.83$  4.59$
  Q  0.6645  10.87$  13.92$  4.63$
  Q  -1.3290  11.25$  13.17$  4.38$
  Q  0.6645  18.56$  16.63$  1.73$
  Q  0.6645  17.58$  16.02$  2.77$
  Q  -1.3290  17.8$  16.38$  2.02$
  Q  0.6645  18.65$  8.1$  16.96$
  Q  0.6645  17.2$  8.51$  16.39$
  Q  -1.3290  18.07$  8.32$  16.34$
  Q  0.6645  16.04$  12.17$  17.78$
  Q  0.6645  17.32$  11.31$  17.69$
  Q  -1.3290  16.53$  11.53$  17.96$
  Q  0.6645  13.53$  21.39$  8.51$
  Q  0.6645  13.51$  20.73$  7.1$
  Q  -1.3290  13.17$  21.07$  7.78$
  Q  0.6645  14.14$  6.78$  9.23$
  Q  0.6645  14.36$  6.1$  10.6$
  Q  -1.3290  14.47$  6.7$  10$
  Q  0.6645  9.52$  0.1$  10.49$
  Q  0.6645  8.92$  1.46$  10.96$
  Q  -1.3290  9.34$  0.73$  11.01$
  Q  0.6645  20.88$  16.21$  8.39$
  Q  0.6645  20.12$  17.21$  7.4$
  Q  -1.3290  20.4$  16.46$  7.69$
  Q  0.6645  12.24$  19.39$  9.84$
  Q  0.6645  10.99$  20.05$  10.24$
  Q  -1.3290  11.77$  19.91$  10.3$
  Q  0.6645  11.83$  3.78$  8.17$
  Q  0.6645  12.22$  5.01$  7.22$
  Q  -1.3290  11.66$  4.46$  7.67$
  Q  0.6645  18.56$  6.49$  13.45$
  Q  0.6645  18.8$  7.32$  14.74$
  Q  -1.3290  18.98$  6.81$  14.12$
  Q  0.6645  12.57$  6.92$  4.28$
  Q  0.6645  13.99$  6.18$  4.77$
  Q  -1.3290  13.41$  6.85$  4.58$
  Q  0.6645  12.05$  18$  16.66$
  Q  0.6645  11.36$  18.6$  15.48$
  Q  -1.3290  11.91$  18.12$  15.86$
  Q  0.6645  1.61$  7.8$  12.88$
  Q  0.6645  1.3$  7.1$  14.26$
  Q  -1.3290  1.76$  7.23$  13.55$
  Q  0.6645  17.16$  16.6$  7.67$
  Q  0.6645  17.15$  17.01$  9.17$
  Q  -1.3290  17.07$  16.48$  8.52$
  Q  0.6645  13.77$  1.96$  14.02$
  Q  0.6645  14.96$  1.12$  13.83$
  Q  -1.3290  14.56$  1.83$  13.98$
  Q  0.6645  5.8$  13.42$  7.46$
  Q  0.6645  6.89$  13.78$  8.41$
  Q  -1.3290  6.28$  13.29$  8.1$
  Q  0.6645  20.15$  16.79$  11.59$
  Q  0.6645  19.02$  16.62$  12.75$
  Q  -1.3290  19.7$  16.39$  12.23$
  Q  0.6645  9.04$  1.65$  14.94$
  Q  0.6645  7.49$  1.29$  14.92$
  Q  -1.3290  8.22$  1.7$  15.16$
  Q  0.6645  13.14$  17.17$  4.92$
  Q  0.6645  13.09$  15.72$  5.63$
  Q  -1.3290  13.43$  16.45$  5.33$
  Q  0.6645  10.35$  7.88$  1.95$
  Q  0.6645  10.9$  6.59$  1.68$
  Q  -1.3290  10.91$  7.32$  2.04$
  Q  0.6645  11.87$  19.24$  0.71$
  Q  0.6645  12.59$  18.92$  2.06$
  Q  -1.3290  12.4$  18.81$  1.21$
  Q  0.6645  11.29$  1.77$  14.28$
  Q  0.6645  11.17$  3.33$  14.31$
  Q  -1.3290  11.57$  2.57$  14.23$
  Q  0.6645  17.19$  18.02$  12.45$
  Q  0.6645  17.79$  18.75$  13.53$
  Q  -1.3290  17.66$  18.06$  13.1$
  Q  0.6645  11.38$  14.34$  18.29$
  Q  0.6645  11.01$  13.25$  17.16$
  Q  -1.3290  11.12$  14.05$  17.52$
  Q  0.6645  12.2$  3.69$  11.73$
  Q  0.6645  11.71$  2.38$  12.3$
  Q  -1.3290  12.01$  2.89$  11.7$
  Q  0.6645  12.88$  15.31$  2.47$
  Q  0.6645  14.07$  15.11$  3.52$
  Q  -1.3290  13.69$  15.11$  2.77$
  Q  0.6645  17.29$  19.75$  8.43$
  Q  0.6645  16.4$  20.83$  7.98$
  Q  -1.3290  17.11$  20.44$  8.01$
  Q  0.6645  5.36$  8.3$  5.2$
  Q  0.6645  4.49$  9.46$  5.06$
  Q  -1.3290  4.65$  8.68$  5.32$
  Q  0.6645  16.49$  5.43$  7.45$
  Q  0.6645  16.22$  4$  7.97$
  Q  -1.3290  16.04$  4.81$  7.8$
  Q  0.6645  9.6$  10.12$  20.65$
  Q  0.6645  8.15$  9.8$  20.2$
  Q  -1.3290  8.99$  9.66$  20.3$
  Q  0.6645  8.35$  3.62$  19.54$
  Q  0.6645  9.89$  3.91$  19.77$
  Q  -1.3290  9.08$  3.67$  19.98$
  Q  0.6645  11.53$  15.03$  20.66$
  Q  0.6645  12.99$  15.02$  19.99$
  Q  -1.3290  12.17$  14.82$  20.11$
  Q  0.6645  16.11$  8.83$  4.79$
  Q  0.6645  14.78$  8.09$  4.94$
  Q  -1.3290  15.41$  8.61$  5.21$
  Q  0.6645  15.65$  11.66$  0.54$
  Q  0.6645  15.58$  10.18$  0.1$
  Q  -1.3290  15.59$  10.82$  0.67$
  Q  0.6645  15.65$  3.61$  17.61$
  Q  0.6645  14.13$  3.26$  17.55$
  Q  -1.3290  14.89$  3.33$  17.91$
  Q  0.6645  10.32$  20.08$  6.52$
  Q  0.6645  11.47$  20.03$  7.48$
  Q  -1.3290  10.8$  19.72$  7.13$
  Q  0.6645  9.45$  8.66$  18.21$
  Q  0.6645  9.43$  9.17$  16.79$
  Q  -1.3290  9.75$  8.75$  17.43$
  Q  0.6645  15.17$  3.53$  13.14$
  Q  0.6645  14.16$  4.4$  12.41$
  Q  -1.3290  14.9$  4.22$  12.76$
  Q  0.6645  7.33$  20.42$  8.55$
  Q  0.6645  5.95$  19.77$  8.68$
  Q  -1.3290  6.52$  20.3$  8.35$
  Q  0.6645  5.42$  15.86$  10.79$
  Q  0.6645  5.35$  17.13$  11.54$
  Q  -1.3290  5.67$  16.63$  10.96$
  Q  0.6645  6.82$  8.28$  3.02$
  Q  0.6645  7.96$  8.96$  3.77$
  Q  -1.3290  7.22$  8.52$  3.7$
  Q  0.6645  9.67$  19.93$  8.54$
  Q  0.6645  9.18$  19.39$  9.94$
  Q  -1.3290  9.29$  19.96$  9.33$
  Q  0.6645  5.14$  4.6$  12.22$
  Q  0.6645  4.66$  4.85$  13.66$
  Q  -1.3290  4.67$  4.94$  12.82$
  Q  0.6645  7.68$  2.34$  9.42$
  Q  0.6645  6.86$  2.42$  10.68$
  Q  -1.3290  7.5$  2.65$  10.18$
  Q  0.6645  8.53$  4.47$  10.66$
  Q  0.6645  8.61$  5.52$  11.82$
  Q  -1.3290  8.8$  5.17$  11.09$
  Q  0.6645  9.58$  18.53$  2.75$
  Q  0.6645  8.94$  19.37$  3.99$
  Q  -1.3290  9.44$  18.79$  3.58$
  Q  0.6645  14.52$  8.31$  2.14$
  Q  0.6645  14.77$  7.05$  2.91$
  Q  -1.3290  14.87$  7.57$  2.27$
  Q  0.6645  7.35$  6.01$  18.89$
  Q  0.6645  8.78$  5.7$  18.65$
  Q  -1.3290  7.99$  5.6$  18.57$
  Q  0.6645  16.03$  8.34$  20.06$
  Q  0.6645  15.39$  9.78$  19.95$
  Q  -1.3290  15.92$  9.16$  20.28$
  Q  0.6645  7.69$  1.48$  7.27$
  Q  0.6645  8.63$  2.74$  7.33$
  Q  -1.3290  8.36$  1.94$  7.49$
  Q  0.6645  20.46$  7.45$  6.38$
  Q  0.6645  19.24$  8.05$  7.31$
  Q  -1.3290  19.82$  7.46$  6.95$
  Q  0.6645  16.05$  17.7$  15.26$
  Q  0.6645  14.85$  17.64$  16.35$
  Q  -1.3290  15.65$  17.76$  16.05$
  Q  0.6645  12.77$  10.17$  2.3$
  Q  0.6645  14.24$  10.29$  1.9$
  Q  -1.3290  13.59$  10.01$  2.35$
*
