! NoMOPrint PrintBasis #MINIPRINT SMALLPRINT LARGEPRINT
! ALLPOP XYZFILE
#! BP86 3-21G   TightSCF
! ENGRAD
! B3LYP NormalPNO PModel #DecontractAux
#! VerySlowConv 
 %maxcore 5000
 %scf  maxiter   500  end 

%pal
    nprocs 32
end

%basis
    NewGTO O    # New basis for oxygen
        "aug-cc-pVTZ"
    end
    NewGTO C    # New basis for carbon
        "aug-cc-pVTZ"
    end
    NewGTO H    # New basis for hydrogen
        "cc-pVTZ"
    end
end

* xyz 0   1
  C  10.67  12.54  12.16  #1
  H  10.57  13.6  12.09  #2
  H  11.52  12.42  12.88  #3
  C  10.99  12.09  10.76  #4
  H  10.1  12.32  10.16  #5
  H  11.95  12.61  10.44  #6
  C  11.17  10.57  10.7  #7
  H  10.23  10.15  11.05  #8
  H  11.8  10.12  11.4  #9
  C  11.41  9.97  9.32  #10
  H  12.42  9.72  9.1  #11
  H  10.97  10.67  8.64  #12
  O  10.78  8.67  9.1  #13
  H  11.03  8.34  8.24  #14
  O  9.55  11.96  12.76  #15
  H  9.52  12.32  13.71  #16
  O  10.74  16.1  13.08  #17
  H  11.41  16.75  13.35  #18
  H  9.97  16.65  13.34  #19
  O  14.29  8.77  11.17  #20
  H  13.62  8.87  11.86  #21
  H  14.48  9.64  10.92  #22
  O  13.18  11.94  14.12  #23
  H  14.13  12.03  14.23  #24
  H  12.85  12.78  14.49  #25
  O  9.39  13.18  15.27  #26
  H  9.35  12.5  15.99  #27
  H  8.42  13.29  15.05  #28
  O  14.31  11.72  11.31  #29
  H  14.25  12.28  10.57  #30
  H  13.7  11.99  12.07  #31
  O  12.44  14.65  8.46  #32
  H  13.28  15.18  8.6  #33
  H  11.86  14.94  9.18  #34
  O  14.47  6.77  9.52  #35
  H  14.73  7.62  9.95  #36
  H  15.2  6.14  9.58  #37
  O  9.92  11.6  18.05  #38
  H  9.11  11.95  18.46  #39
  H  9.8  10.67  17.97  #40
  O  16.05  11.89  13.98  #41
  H  16.03  10.99  14.17  #42
  H  16.11  11.9  13.02  #43
  O  12.78  9.02  13.42  #44
  H  12.46  8.46  14.13  #45
  H  12.73  9.89  13.77  #46
  O  16.68  10.1  9.86  #47
  H  17.18  9.33  10.17  #48
  H  17.05  10.32  8.99  #49
  O  10.53  15.56  10.15  #50
  H  9.81  15.06  9.83  #51
  H  10.23  15.97  10.96  #52
  O  7.23  10.66  12.64  #53
  H  7.93  11.3  12.49  #54
  H  6.68  10.74  11.88  #55
  O  15.97  8.69  13.78  #56
  H  15.14  9.02  13.57  #57
  H  15.85  7.71  13.79  #58
  O  12.7  17.3  15.05  #59
  H  12.38  18.2  15.03  #60
  H  12.15  16.85  15.74  #61
  O  10.5  7.71  6.32  #62
  H  10.09  8.6  6.16  #63
  H  9.87  7.18  6.82  #64
  O  15.33  6.18  12.48  #65
  H  14.83  5.4  12.92  #66
  H  14.76  6.63  11.86  #67
  O  10.03  6.53  10.76  #68
  H  9.57  6.16  10.01  #69
  H  10.52  7.31  10.43  #70
  O  8.41  17.34  13.82  #71
  H  8.04  17.61  14.69  #72
  H  7.68  16.85  13.27  #73
  O  6.47  12.96  15.14  #74
  H  5.79  13.64  14.94  #75
  H  5.98  12.15  14.96  #76
  O  9.02  19.12  11.87  #77
  H  8.19  19.22  11.33  #78
  H  8.77  18.55  12.6  #79
  O  11.9  14.39  14.93  #80
  H  11.55  15.03  14.33  #81
  H  11.1  14.04  15.3  #82
  Q  0.6645  13.06$  10.36$  5.46$
  Q  0.6645  14.14$  9.54$  6.36$
  Q  -1.3290  13.73$  10.22$  6.02$
  Q  0.6645  12.51$  3.53$  15.15$
  Q  0.6645  12.61$  2.12$  15.77$
  Q  -1.3290  12.39$  2.71$  15.17$
  Q  0.6645  3.63$  16.36$  17.63$
  Q  0.6645  3.36$  14.83$  17.91$
  Q  -1.3290  3.79$  15.56$  17.9$
  Q  0.6645  7.19$  17.94$  5.72$
  Q  0.6645  6.05$  16.82$  5.34$
  Q  -1.3290  6.4$  17.54$  5.74$
  Q  0.6645  9.21$  2.35$  14.02$
  Q  0.6645  10.65$  2.5$  13.47$
  Q  -1.3290  9.83$  2.31$  13.43$
  Q  0.6645  1.45$  8$  12.21$
  Q  0.6645  1.73$  7.92$  10.76$
  Q  -1.3290  1.92$  8.08$  11.55$
  Q  0.6645  12.89$  20.32$  9.8$
  Q  0.6645  13.88$  21.59$  10.26$
  Q  -1.3290  13.59$  20.87$  9.78$
  Q  0.6645  1.05$  13.38$  8.93$
  Q  0.6645  1.93$  13$  10.13$
  Q  -1.3290  1.66$  12.93$  9.33$
  Q  0.6645  10.15$  19.62$  15.72$
  Q  0.6645  11.1$  20.12$  14.51$
  Q  -1.3290  10.88$  19.71$  15.25$
  Q  0.6645  15.62$  7.96$  4.1$
  Q  0.6645  15.38$  6.43$  3.88$
  Q  -1.3290  15.44$  7.17$  4.33$
  Q  0.6645  12.37$  0.02$  8.24$
  Q  0.6645  10.97$  -0.18$  8.69$
  Q  -1.3290  11.54$  0.08$  8.15$
  Q  0.6645  20.93$  13.19$  13.19$
  Q  0.6645  20.66$  14.54$  12.44$
  Q  -1.3290  20.51$  13.72$  12.67$
  Q  0.6645  19.09$  8.38$  8.03$
  Q  0.6645  17.56$  8.38$  7.9$
  Q  -1.3290  18.34$  8.03$  7.92$
  Q  0.6645  9.73$  8.29$  21.22$
  Q  0.6645  10.8$  7.52$  22.07$
  Q  -1.3290  10.51$  8.01$  21.4$
  Q  0.6645  5.95$  14.33$  4.15$
  Q  0.6645  4.54$  14.78$  4.82$
  Q  -1.3290  5.34$  14.86$  4.45$
  Q  0.6645  11.71$  6.66$  15.59$
  Q  0.6645  10.56$  7.01$  14.63$
  Q  -1.3290  11.08$  7.15$  15.25$
  Q  0.6645  3.02$  6.81$  12.49$
  Q  0.6645  3.89$  6.49$  13.66$
  Q  -1.3290  3.59$  6.35$  12.88$
  Q  0.6645  2.94$  13.26$  5.96$
  Q  0.6645  3.97$  13.74$  7.08$
  Q  -1.3290  3.58$  13.73$  6.32$
  Q  0.6645  11.02$  9.65$  2.47$
  Q  0.6645  12.04$  9.04$  3.34$
  Q  -1.3290  11.63$  9.69$  3.02$
  Q  0.6645  12.7$  3.38$  10.62$
  Q  0.6645  13.78$  2.54$  11.45$
  Q  -1.3290  13.11$  2.69$  10.91$
  Q  0.6645  15.99$  8.39$  17.84$
  Q  0.6645  16.21$  9.77$  17.28$
  Q  -1.3290  16.33$  8.94$  17.32$
  Q  0.6645  17.93$  4.35$  13.92$
  Q  0.6645  16.65$  3.82$  14.47$
  Q  -1.3290  17.45$  4.02$  14.49$
  Q  0.6645  10.38$  17.72$  7.3$
  Q  0.6645  10.77$  17.1$  8.76$
  Q  -1.3290  10.77$  17.69$  8.11$
  Q  0.6645  6.33$  4.84$  8.28$
  Q  0.6645  5.07$  4.19$  8.64$
  Q  -1.3290  5.85$  4.18$  8.34$
  Q  0.6645  14.27$  6.2$  -0.17$
  Q  0.6645  14.57$  7.56$  0.68$
  Q  -1.3290  14.45$  6.7$  0.54$
  Q  0.6645  5.34$  20.55$  12.81$
  Q  0.6645  5.5$  21.3$  11.45$
  Q  -1.3290  5.2$  20.69$  11.98$
  Q  0.6645  12.72$  21.43$  13.22$
  Q  0.6645  13.98$  21.33$  14.06$
  Q  -1.3290  13.22$  21.08$  13.79$
  Q  0.6645  5.17$  6.5$  10.66$
  Q  0.6645  6.58$  5.79$  10.76$
  Q  -1.3290  6$  6.43$  10.66$
  Q  0.6645  17.24$  14.35$  5.54$
  Q  0.6645  18.11$  13.32$  5.01$
  Q  -1.3290  17.81$  14.09$  5.02$
  Q  0.6645  12.15$  2.74$  7.96$
  Q  0.6645  11.82$  4.28$  8.18$
  Q  -1.3290  11.66$  3.43$  8.1$
  Q  0.6645  18.85$  8.79$  12.07$
  Q  0.6645  17.51$  9.38$  12.73$
  Q  -1.3290  18.32$  9.39$  12.44$
  Q  0.6645  5.77$  9.93$  15.3$
  Q  0.6645  6.07$  10.65$  13.92$
  Q  -1.3290  5.56$  10.31$  14.56$
  Q  0.6645  7.05$  4.93$  14.81$
  Q  0.6645  6.64$  6.1$  13.78$
  Q  -1.3290  6.97$  5.34$  14.03$
  Q  0.6645  9.38$  9.69$  4.38$
  Q  0.6645  10.42$  10.59$  5.23$
  Q  -1.3290  9.68$  10.15$  5.07$
  Q  0.6645  7.66$  8.54$  8.49$
  Q  0.6645  6.63$  7.78$  9.17$
  Q  -1.3290  6.88$  8.4$  8.75$
  Q  0.6645  16.95$  18.69$  14.41$
  Q  0.6645  18$  19.51$  15.02$
  Q  -1.3290  17.28$  19.41$  14.62$
  Q  0.6645  8.04$  15.51$  19.13$
  Q  0.6645  9.35$  14.86$  19.73$
  Q  -1.3290  8.71$  14.98$  19.18$
  Q  0.6645  6.2$  7.7$  12.11$
  Q  0.6645  6.88$  8.82$  12.99$
  Q  -1.3290  6.5$  8.07$  12.81$
  Q  0.6645  15.7$  13.98$  6.94$
  Q  0.6645  15.66$  15.36$  7.46$
  Q  -1.3290  15.9$  14.8$  6.94$
  Q  0.6645  13.91$  19.54$  7.65$
  Q  0.6645  12.67$  18.45$  7.42$
  Q  -1.3290  13.39$  18.94$  7.26$
  Q  0.6645  16.12$  12.91$  4.17$
  Q  0.6645  15.53$  12$  5.3$
  Q  -1.3290  15.74$  12.22$  4.51$
  Q  0.6645  5.33$  7.57$  14.69$
  Q  0.6645  4.1$  8.1$  15.47$
  Q  -1.3290  4.54$  7.52$  15.03$
  Q  0.6645  6.72$  11.38$  4.74$
  Q  0.6645  7.92$  10.59$  5.38$
  Q  -1.3290  7.08$  10.77$  5.2$
  Q  0.6645  3.85$  9.92$  13.54$
  Q  0.6645  3$  9.36$  12.29$
  Q  -1.3290  3.39$  9.96$  12.78$
  Q  0.6645  6.67$  17.78$  11.09$
  Q  0.6645  6.17$  19.29$  10.81$
  Q  -1.3290  6.59$  18.54$  10.69$
  Q  0.6645  8.46$  3.48$  5.12$
  Q  0.6645  8.6$  2.62$  3.97$
  Q  -1.3290  8.43$  3.38$  4.33$
  Q  0.6645  14.92$  7.63$  7.8$
  Q  0.6645  15.6$  7.62$  6.44$
  Q  -1.3290  15.36$  7.96$  7.17$
  Q  0.6645  10.12$  15.47$  16.36$
  Q  0.6645  9.74$  15.7$  17.79$
  Q  -1.3290  10.03$  15.92$  17.03$
  Q  0.6645  6.24$  17.02$  7.59$
  Q  0.6645  6.39$  17.53$  9.03$
  Q  -1.3290  6.3$  16.93$  8.43$
  Q  0.6645  11.64$  4.2$  3.9$
  Q  0.6645  12.22$  2.99$  4.71$
  Q  -1.3290  12.24$  3.68$  4.22$
  Q  0.6645  11.98$  7.65$  5.35$
  Q  0.6645  13.44$  7.52$  4.85$
  Q  -1.3290  12.6$  7.64$  4.78$
  Q  0.6645  3.64$  9.85$  18.82$
  Q  0.6645  2.52$  9.02$  18.48$
  Q  -1.3290  2.97$  9.42$  19$
  Q  0.6645  19.64$  14.11$  9.21$
  Q  0.6645  18.9$  13.05$  10.25$
  Q  -1.3290  19.33$  13.31$  9.54$
  Q  0.6645  11.06$  13.04$  1.17$
  Q  0.6645  10.58$  13.88$  2.25$
  Q  -1.3290  10.59$  13.2$  1.81$
  Q  0.6645  4.28$  11.74$  12.69$
  Q  0.6645  5.34$  12.77$  12.55$
  Q  -1.3290  4.59$  12.49$  12.72$
  Q  0.6645  7.03$  11.7$  7.14$
  Q  0.6645  7.43$  11.54$  8.63$
  Q  -1.3290  7.53$  11.83$  7.84$
  Q  0.6645  6.62$  2.25$  11.75$
  Q  0.6645  5.06$  2.27$  12$
  Q  -1.3290  5.85$  1.93$  11.94$
  Q  0.6645  13.29$  20.24$  16.04$
  Q  0.6645  14.44$  19.96$  17.06$
  Q  -1.3290  13.68$  20.22$  16.81$
  Q  0.6645  5.94$  8.63$  1.61$
  Q  0.6645  5.25$  7.43$  2.33$
  Q  -1.3290  5.65$  7.84$  1.67$
  Q  0.6645  1.7$  12.81$  17.72$
  Q  0.6645  1.74$  13.81$  18.93$
  Q  -1.3290  1.95$  13.49$  18.17$
  Q  0.6645  16.03$  7.3$  15.97$
  Q  0.6645  16.71$  5.91$  16.01$
  Q  -1.3290  16.05$  6.46$  16.05$
  Q  0.6645  7.22$  6.89$  2.15$
  Q  0.6645  8.03$  5.66$  1.86$
  Q  -1.3290  7.83$  6.34$  2.32$
  Q  0.6645  20.12$  6.39$  5.13$
  Q  0.6645  20.54$  6.79$  6.59$
  Q  -1.3290  20.34$  6.27$  5.95$
  Q  0.6645  8.16$  13.99$  7.86$
  Q  0.6645  7.53$  15.33$  8.34$
  Q  -1.3290  8.1$  14.68$  8.38$
  Q  0.6645  19.44$  6.73$  13.39$
  Q  0.6645  19.35$  8.15$  13.9$
  Q  -1.3290  19.63$  7.35$  13.91$
  Q  0.6645  11.77$  8.64$  18.36$
  Q  0.6645  12.05$  8.25$  19.8$
  Q  -1.3290  12.26$  8.51$  19.01$
  Q  0.6645  10.48$  6.24$  4.27$
  Q  0.6645  9.47$  5.21$  3.62$
  Q  -1.3290  10.25$  5.6$  3.79$
  Q  0.6645  17.01$  13.2$  15.6$
  Q  0.6645  16.95$  14.2$  16.69$
  Q  -1.3290  17.3$  13.61$  16.25$
  Q  0.6645  9.84$  2.52$  11.24$
  Q  0.6645  10.36$  2.9$  9.8$
  Q  -1.3290  9.81$  2.65$  10.37$
  Q  0.6645  12.02$  0.94$  11.33$
  Q  0.6645  11.41$  -0.27$  10.84$
  Q  -1.3290  11.74$  0.15$  11.41$
  Q  0.6645  9.03$  6.6$  19.93$
  Q  0.6645  7.6$  7.17$  20.07$
  Q  -1.3290  8.38$  7.2$  19.79$
  Q  0.6645  14.59$  10.38$  20.69$
  Q  0.6645  13.45$  10.6$  19.72$
  Q  -1.3290  14.26$  10.56$  19.96$
  Q  0.6645  13.54$  15.06$  16.43$
  Q  0.6645  12.84$  15.79$  17.55$
  Q  -1.3290  13.26$  15.16$  17.22$
  Q  0.6645  12.81$  12.76$  20.99$
  Q  0.6645  13.08$  12.48$  22.45$
  Q  -1.3290  12.66$  12.83$  21.84$
  Q  0.6645  4.66$  16.33$  15.41$
  Q  0.6645  3.94$  15.23$  14.54$
  Q  -1.3290  4.6$  15.63$  14.91$
  Q  0.6645  5.75$  1.46$  6.09$
  Q  0.6645  5.65$  2.91$  6.42$
  Q  -1.3290  5.61$  2.26$  5.91$
  Q  0.6645  7.9$  5.91$  7.21$
  Q  0.6645  8.72$  4.9$  7.98$
  Q  -1.3290  8.35$  5.63$  7.86$
  Q  0.6645  1.79$  7.39$  7.97$
  Q  0.6645  2.02$  8.67$  8.71$
  Q  -1.3290  1.88$  7.84$  8.66$
  Q  0.6645  13.57$  17.66$  18.85$
  Q  0.6645  13.01$  18.5$  17.79$
  Q  -1.3290  13.05$  17.82$  18.23$
  Q  0.6645  5.69$  9.81$  18.35$
  Q  0.6645  5.63$  11.33$  18.45$
  Q  -1.3290  5.44$  10.54$  18.66$
  Q  0.6645  8.3$  4.04$  11.34$
  Q  0.6645  7.07$  4.28$  12.17$
  Q  -1.3290  7.47$  4.15$  11.46$
  Q  0.6645  17.28$  17.73$  5.99$
  Q  0.6645  16.37$  18.33$  5.1$
  Q  -1.3290  16.88$  18.39$  5.69$
  Q  0.6645  2.79$  10.76$  8.45$
  Q  0.6645  3.27$  9.6$  7.34$
  Q  -1.3290  2.74$  10.13$  7.8$
  Q  0.6645  18.59$  5.18$  11.37$
  Q  0.6645  17.29$  5.5$  12.16$
  Q  -1.3290  18.13$  5.45$  12.04$
  Q  0.6645  9.92$  22.1$  13.05$
  Q  0.6645  9.44$  20.57$  12.94$
  Q  -1.3290  9.64$  21.36$  13.33$
  Q  0.6645  6.43$  17.08$  19.58$
  Q  0.6645  5.77$  16.03$  18.57$
  Q  -1.3290  6.2$  16.28$  19.31$
  Q  0.6645  7.97$  2.78$  7.71$
  Q  0.6645  9.54$  2.76$  7.29$
  Q  -1.3290  8.71$  3.03$  7.29$
  Q  0.6645  5.46$  9.55$  6.03$
  Q  0.6645  5.24$  8.76$  7.21$
  Q  -1.3290  4.99$  9.1$  6.52$
  Q  0.6645  14.08$  4.23$  5.56$
  Q  0.6645  15.53$  4.36$  5.85$
  Q  -1.3290  14.75$  4.07$  6.01$
  Q  0.6645  18.7$  10$  2.04$
  Q  0.6645  19.26$  10.26$  3.46$
  Q  -1.3290  18.99$  9.78$  2.79$
  Q  0.6645  2.93$  15.43$  7.3$
  Q  0.6645  2.58$  16.93$  7.74$
  Q  -1.3290  2.46$  16.14$  7.48$
  Q  0.6645  1.97$  10.16$  16.52$
  Q  0.6645  1.62$  8.83$  15.86$
  Q  -1.3290  2.14$  9.38$  16.22$
  Q  0.6645  18.09$  6$  6.27$
  Q  0.6645  17.23$  6.53$  5.11$
  Q  -1.3290  17.54$  5.95$  5.62$
  Q  0.6645  8.72$  20.95$  15.2$
  Q  0.6645  7.21$  20.74$  15.56$
  Q  -1.3290  8.06$  20.69$  15.69$
  Q  0.6645  11.75$  12.51$  18.84$
  Q  0.6645  12.65$  13.67$  18.58$
  Q  -1.3290  12.44$  12.95$  18.96$
  Q  0.6645  2.64$  16.67$  10.54$
  Q  0.6645  2.6$  18.17$  9.76$
  Q  -1.3290  2.38$  17.53$  10.34$
  Q  0.6645  11.5$  14.47$  21.03$
  Q  0.6645  11.64$  15.97$  21.1$
  Q  -1.3290  11.24$  15.23$  20.91$
  Q  0.6645  7.03$  13.75$  10.12$
  Q  0.6645  5.66$  13.35$  10.41$
  Q  -1.3290  6.44$  13.53$  10.64$
  Q  0.6645  15.67$  4.36$  8.24$
  Q  0.6645  16.35$  3.45$  9.25$
  Q  -1.3290  15.9$  4.13$  8.98$
  Q  0.6645  7.3$  13.22$  0.42$
  Q  0.6645  8.71$  13.29$  1.03$
  Q  -1.3290  7.87$  13.37$  1$
  Q  0.6645  11.56$  1.02$  6.27$
  Q  0.6645  12.21$  0.74$  4.91$
  Q  -1.3290  11.65$  1.1$  5.42$
  Q  0.6645  8.01$  1.86$  9.61$
  Q  0.6645  6.64$  2.36$  9.11$
  Q  -1.3290  7.31$  1.82$  9.19$
  Q  0.6645  13.27$  5.1$  16.89$
  Q  0.6645  14.14$  5.79$  15.84$
  Q  -1.3290  13.55$  5.24$  16.14$
  Q  0.6645  12.68$  4.98$  19.39$
  Q  0.6645  12.9$  6.47$  18.9$
  Q  -1.3290  13$  5.59$  18.92$
  Q  0.6645  15.02$  6.64$  18.9$
  Q  0.6645  14.36$  8.04$  19.23$
  Q  -1.3290  15$  7.46$  19.19$
  Q  0.6645  1.91$  11.36$  12.35$
  Q  0.6645  0.73$  11.82$  11.49$
  Q  -1.3290  1.25$  11.84$  12.16$
  Q  0.6645  11.29$  6.38$  1.93$
  Q  0.6645  12.64$  6.42$  1.2$
  Q  -1.3290  11.81$  6.29$  1.29$
  Q  0.6645  9.87$  21.97$  5.2$
  Q  0.6645  9.53$  21.31$  6.6$
  Q  -1.3290  9.44$  21.47$  5.75$
  Q  0.6645  2.95$  7.48$  5.11$
  Q  0.6645  1.49$  7.83$  5.32$
  Q  -1.3290  2.19$  7.43$  5.53$
  Q  0.6645  9.91$  18.27$  5.38$
  Q  0.6645  9.62$  16.7$  5.08$
  Q  -1.3290  9.53$  17.49$  5.5$
  Q  0.6645  12.49$  19.57$  5.4$
  Q  0.6645  11.39$  20.15$  4.55$
  Q  -1.3290  11.8$  19.53$  4.96$
  Q  0.6645  18.15$  2.63$  5.41$
  Q  0.6645  18.07$  4.14$  4.85$
  Q  -1.3290  18.23$  3.28$  4.83$
  Q  0.6645  18.89$  11.1$  6$
  Q  0.6645  19.76$  12.06$  5.33$
  Q  -1.3290  19.05$  11.62$  5.37$
  Q  0.6645  12.98$  5.95$  9.76$
  Q  0.6645  11.55$  5.69$  10.36$
  Q  -1.3290  12.29$  5.5$  9.97$
  Q  0.6645  12.25$  17.99$  3.89$
  Q  0.6645  12.66$  16.5$  4.04$
  Q  -1.3290  12.51$  17.21$  3.59$
  Q  0.6645  20.3$  7.46$  10.71$
  Q  0.6645  20.69$  9.04$  10.7$
  Q  -1.3290  20.44$  8.26$  11.02$
  Q  0.6645  20.03$  16.87$  15.05$
  Q  0.6645  19.31$  15.57$  15.31$
  Q  -1.3290  19.61$  16.34$  15.5$
  Q  0.6645  6$  17.9$  15.98$
  Q  0.6645  4.94$  18.79$  16.79$
  Q  -1.3290  5.25$  18.34$  16.12$
  Q  0.6645  6.89$  4$  17.5$
  Q  0.6645  8.22$  4.15$  16.75$
  Q  -1.3290  7.38$  4.17$  16.85$
  Q  0.6645  20.81$  13.49$  16.76$
  Q  0.6645  19.24$  13.21$  17$
  Q  -1.3290  20.11$  13.21$  17.17$
  Q  0.6645  14.03$  3.58$  14.02$
  Q  0.6645  14.88$  2.43$  13.86$
  Q  -1.3290  14.72$  3.24$  13.81$
  Q  0.6645  2.95$  4.9$  9.13$
  Q  0.6645  3.4$  3.6$  9.73$
  Q  -1.3290  3.44$  4.43$  9.6$
  Q  0.6645  17.32$  16.28$  12.61$
  Q  0.6645  16.98$  16.7$  14.11$
  Q  -1.3290  17.37$  16.74$  13.32$
  Q  0.6645  10.33$  19.53$  10.75$
  Q  0.6645  10.59$  19.47$  9.24$
  Q  -1.3290  10.61$  19.82$  10$
  Q  0.6645  13.33$  13.21$  7.23$
  Q  0.6645  14.02$  12.02$  6.69$
  Q  -1.3290  13.98$  12.82$  6.93$
  Q  0.6645  13.74$  0.45$  3.73$
  Q  0.6645  13.45$  1.98$  3.47$
  Q  -1.3290  13.5$  1.16$  3.29$
  Q  0.6645  15.73$  16.82$  16.21$
  Q  0.6645  14.81$  17.16$  15.18$
  Q  -1.3290  15.53$  16.93$  15.41$
  Q  0.6645  14.65$  5.62$  2.13$
  Q  0.6645  14.04$  4.51$  3.18$
  Q  -1.3290  14.58$  5.1$  2.81$
  Q  0.6645  15.92$  10.19$  3.66$
  Q  0.6645  17.14$  9.55$  3.1$
  Q  -1.3290  16.34$  9.6$  3.25$
  Q  0.6645  11.32$  12.51$  3.96$
  Q  0.6645  10.86$  13.16$  5.24$
  Q  -1.3290  11.42$  12.71$  4.77$
  Q  0.6645  2.82$  5.54$  16.97$
  Q  0.6645  3.9$  6.13$  16.09$
  Q  -1.3290  3.6$  5.79$  16.79$
  Q  0.6645  4.83$  9.99$  10.85$
  Q  0.6645  5.54$  10.06$  9.44$
  Q  -1.3290  5.16$  10.36$  10.14$
  Q  0.6645  21.73$  8.45$  7.91$
  Q  0.6645  21.3$  8.92$  6.49$
  Q  -1.3290  21.19$  8.63$  7.3$
  Q  0.6645  10.61$  4.46$  17.72$
  Q  0.6645  10.82$  3.54$  16.48$
  Q  -1.3290  10.48$  4.18$  16.91$
  Q  0.6645  8.93$  5.46$  13.38$
  Q  0.6645  9.66$  6.08$  12.36$
  Q  -1.3290  9.63$  5.68$  13.05$
  Q  0.6645  7.66$  8.91$  16.94$
  Q  0.6645  6.5$  7.93$  17.02$
  Q  -1.3290  6.84$  8.69$  16.95$
  Q  0.6645  20.87$  11.81$  10$
  Q  0.6645  22.38$  11.47$  9.65$
  Q  -1.3290  21.59$  11.34$  9.96$
  Q  0.6645  11.26$  18.69$  18.41$
  Q  0.6645  11.55$  20.17$  17.91$
  Q  -1.3290  11.24$  19.58$  18.45$
  Q  0.6645  5.83$  16.04$  13.1$
  Q  0.6645  6.44$  15.36$  11.95$
  Q  -1.3290  6.31$  16.01$  12.42$
  Q  0.6645  6.17$  3.21$  2.86$
  Q  0.6645  5.69$  2.98$  1.42$
  Q  -1.3290  6.27$  2.98$  2.03$
  Q  0.6645  16.21$  15.97$  18.4$
  Q  0.6645  14.99$  15.17$  17.93$
  Q  -1.3290  15.78$  15.48$  17.9$
  Q  0.6645  9.91$  8.21$  16.6$
  Q  0.6645  9.32$  8.14$  18.05$
  Q  -1.3290  9.59$  8.51$  17.33$
  Q  0.6645  17.23$  14.68$  10.83$
  Q  0.6645  18$  15.55$  9.95$
  Q  -1.3290  17.41$  15.38$  10.5$
  Q  0.6645  17.77$  11.59$  11.52$
  Q  0.6645  18.47$  12.72$  12.34$
  Q  -1.3290  17.88$  12.38$  11.81$
  Q  0.6645  9.68$  15.24$  6.59$
  Q  0.6645  10.96$  14.6$  6.95$
  Q  -1.3290  10.26$  14.72$  6.47$
  Q  0.6645  13.12$  11.05$  2.75$
  Q  0.6645  14.35$  12$  2.88$
  Q  -1.3290  13.7$  11.64$  2.5$
  Q  0.6645  16.48$  12.31$  17.83$
  Q  0.6645  15.53$  11.22$  18.59$
  Q  -1.3290  16.24$  11.53$  18.14$
  Q  0.6645  7.13$  5.8$  4.7$
  Q  0.6645  6.15$  6.66$  5.52$
  Q  -1.3290  6.72$  6.07$  5.41$
  Q  0.6645  9.74$  3.85$  0.54$
  Q  0.6645  11.14$  4.37$  0.79$
  Q  -1.3290  10.59$  3.81$  0.5$
  Q  0.6645  19.12$  11.72$  8.19$
  Q  0.6645  19.93$  10.39$  8.2$
  Q  -1.3290  19.29$  10.89$  8.02$
  Q  0.6645  16.18$  3.87$  17.27$
  Q  0.6645  14.91$  3.91$  16.41$
  Q  -1.3290  15.5$  3.53$  16.93$
  Q  0.6645  10.72$  16.27$  3.01$
  Q  0.6645  9.36$  15.97$  2.4$
  Q  -1.3290  9.93$  15.99$  3.02$
  Q  0.6645  15.68$  -0.02$  11.23$
  Q  0.6645  15.99$  1.28$  10.59$
  Q  -1.3290  15.53$  0.78$  11.06$
  Q  0.6645  1.61$  15.22$  11.61$
  Q  0.6645  3$  14.62$  12.01$
  Q  -1.3290  2.4$  14.91$  11.51$
  Q  0.6645  12.75$  4.88$  12.05$
  Q  0.6645  11.68$  5.02$  13.13$
  Q  -1.3290  12.45$  4.93$  12.82$
  Q  0.6645  16.87$  19.52$  7.39$
  Q  0.6645  16.47$  19.28$  8.9$
  Q  -1.3290  16.79$  19.71$  8.22$
  Q  0.6645  4.59$  15.72$  22.32$
  Q  0.6645  5.23$  15.57$  20.92$
  Q  -1.3290  4.79$  15.3$  21.58$
  Q  0.6645  15.6$  17.63$  2.94$
  Q  0.6645  14.17$  17.7$  3.55$
  Q  -1.3290  14.98$  17.97$  3.4$
  Q  0.6645  3.63$  4.19$  12.29$
  Q  0.6645  2.82$  2.81$  11.9$
  Q  -1.3290  3.38$  3.33$  12.32$
  Q  0.6645  1.43$  14.01$  14.74$
  Q  0.6645  1.79$  13.64$  13.43$
  Q  -1.3290  1.88$  14.11$  14.07$
  Q  0.6645  13.8$  2.56$  8.91$
  Q  0.6645  14.12$  2.81$  7.47$
  Q  -1.3290  13.89$  2.35$  8.12$
  Q  0.6645  5.1$  4$  4.61$
  Q  0.6645  4.13$  3.64$  3.55$
  Q  -1.3290  4.67$  4.14$  3.93$
  Q  0.6645  8.28$  9.33$  1.96$
  Q  0.6645  9.03$  8.1$  2.13$
  Q  -1.3290  8.97$  8.91$  2.1$
  Q  0.6645  20.07$  16.42$  9.42$
  Q  0.6645  19.32$  16.04$  8.05$
  Q  -1.3290  19.68$  15.9$  8.85$
  Q  0.6645  13.86$  14.78$  5.33$
  Q  0.6645  12.58$  14.27$  5.01$
  Q  -1.3290  13.09$  14.89$  5.13$
  Q  0.6645  15.01$  9.47$  1.39$
  Q  0.6645  15.92$  8.7$  0.44$
  Q  -1.3290  15.26$  9.21$  0.65$
  Q  0.6645  5.48$  12.68$  3.04$
  Q  0.6645  6.98$  13$  2.66$
  Q  -1.3290  6.34$  12.77$  3.16$
  Q  0.6645  6.75$  11.03$  2.4$
  Q  0.6645  6.61$  11.04$  0.93$
  Q  -1.3290  6.75$  10.67$  1.65$
  Q  0.6645  14.82$  22.43$  7.53$
  Q  0.6645  15.78$  21.3$  7.81$
  Q  -1.3290  15.37$  21.86$  7.34$
  Q  0.6645  21.09$  5.5$  10.36$
  Q  0.6645  20.14$  5.19$  9.16$
  Q  -1.3290  20.36$  5.45$  9.94$
  Q  0.6645  6.92$  0.45$  7.79$
  Q  0.6645  7.56$  0.32$  6.3$
  Q  -1.3290  6.96$  0.17$  6.96$
  Q  0.6645  18.88$  10.86$  13.3$
  Q  0.6645  18.38$  11.45$  14.66$
  Q  -1.3290  18.92$  11.35$  14.01$
  Q  0.6645  4.96$  15.19$  8.97$
  Q  0.6645  3.5$  14.32$  9.35$
  Q  -1.3290  4.34$  14.5$  9.09$
  Q  0.6645  6.51$  12.9$  17.05$
  Q  0.6645  6.74$  13.46$  18.46$
  Q  -1.3290  6.6$  12.87$  17.87$
  Q  0.6645  14.89$  17.16$  9.18$
  Q  0.6645  14.1$  17.36$  8$
  Q  -1.3290  14.39$  16.89$  8.58$
  Q  0.6645  8.79$  17.23$  16.72$
  Q  0.6645  8.13$  18.65$  16.8$
  Q  -1.3290  8.17$  17.81$  16.63$
  Q  0.6645  16.33$  19.83$  12.96$
  Q  0.6645  14.89$  19.97$  12.71$
  Q  -1.3290  15.65$  19.88$  12.48$
  Q  0.6645  3.6$  7.26$  3.05$
  Q  0.6645  4.39$  6.09$  3.67$
  Q  -1.3290  4.14$  6.89$  3.63$
  Q  0.6645  5.4$  13.12$  21.58$
  Q  0.6645  5.75$  11.84$  20.76$
  Q  -1.3290  5.83$  12.43$  21.36$
  Q  0.6645  16.38$  17.33$  10.33$
  Q  0.6645  15.81$  18.61$  11.12$
  Q  -1.3290  15.92$  18.07$  10.46$
*
