! NoMOPrint PrintBasis #MINIPRINT SMALLPRINT LARGEPRINT
! ALLPOP XYZFILE
#! BP86 3-21G   TightSCF
! ENGRAD
! B3LYP NormalPNO PModel #DecontractAux
#! VerySlowConv 
 %maxcore 5000
 %scf  maxiter   500  end 

%pal
    nprocs 32
end

%basis
    NewGTO O    # New basis for oxygen
        "aug-cc-pVTZ"
    end
    NewGTO C    # New basis for carbon
        "aug-cc-pVTZ"
    end
    NewGTO H    # New basis for hydrogen
        "cc-pVTZ"
    end
end

* xyz 0   1
  C  12.39  11.97  11.91  #1
  H  12.96  11.92  11.01  #2
  H  13  11.61  12.7  #3
  C  11.15  11.13  11.71  #4
  H  10.71  11.07  12.7  #5
  H  10.43  11.76  11.13  #6
  C  11.24  9.71  11  #7
  H  11.8  9.03  11.66  #8
  H  11.77  9.71  10.05  #9
  C  9.8  9.06  10.8  #10
  H  9.24  8.87  11.71  #11
  H  9.91  8.1  10.26  #12
  O  8.96  9.87  10.1  #13
  H  9.31  10.04  9.25  #14
  O  12.07  13.37  12.07  #15
  H  12.89  13.86  11.88  #16
  O  14.18  14.94  11.6  #17
  H  14.52  14.28  11.01  #18
  H  14.2  15.74  11.1  #19
  O  11.57  6.56  12.45  #20
  H  11.71  6.4  11.51  #21
  H  12.16  5.87  12.97  #22
  O  7.03  8.71  8.12  #23
  H  7.42  9.24  8.82  #24
  H  7.7  8.05  8.12  #25
  O  11.2  9.93  15.23  #26
  H  11.82  10.67  15.39  #27
  H  11.7  9.48  14.53  #28
  O  13.27  16.02  14.03  #29
  H  13.66  15.76  13.18  #30
  H  12.33  15.68  13.95  #31
  O  13.17  11.82  15.8  #32
  H  12.83  12.71  15.94  #33
  H  13.94  12.07  15.25  #34
  O  9  12.79  7.8  #35
  H  9.32  12.81  8.73  #36
  H  9.66  13.15  7.26  #37
  O  15.46  17.61  11.77  #38
  H  15.87  17.84  10.93  #39
  H  15.75  18.29  12.45  #40
  O  12.7  8.45  17.86  #41
  H  12.29  9.04  17.26  #42
  H  13.28  9.01  18.46  #43
  O  17.17  15.3  11.54  #44
  H  16.38  15.85  11.67  #45
  H  17.75  15.56  12.27  #46
  O  13.28  11.17  7.55  #47
  H  13.7  11.9  7.98  #48
  H  12.49  10.84  7.99  #49
  O  8.19  5.89  8.56  #50
  H  8.36  6.13  9.5  #51
  H  8.83  5.24  8.39  #52
  O  10.1  10.23  17.78  #53
  H  10.17  9.97  16.84  #54
  H  9.8  9.44  18.31  #55
  O  16.27  12.52  11.48  #56
  H  16.56  11.78  10.92  #57
  H  16.83  13.29  11.28  #58
  O  10.63  15.15  13.76  #59
  H  10.37  15.82  13.08  #60
  H  11.09  14.4  13.32  #61
  O  14.45  16.57  9.06  #62
  H  15.19  17.14  8.88  #63
  H  14.75  15.72  8.63  #64
  O  14.47  17.84  16.19  #65
  H  13.6  17.69  15.81  #66
  H  14.92  18.33  15.48  #67
  O  10.26  14.22  10.33  #68
  H  10.83  13.7  10.94  #69
  H  9.48  14.46  10.77  #70
  O  11.1  4.87  9.02  #71
  H  10.94  4.64  8.07  #72
  H  11.72  5.62  9.04  #73
  O  12.98  4.81  14.02  #74
  H  13.99  4.75  13.86  #75
  H  12.91  5.27  14.89  #76
  O  9.63  3.81  12.39  #77
  H  10.46  4.33  12.38  #78
  H  8.97  4.46  12.18  #79
  O  9.77  7.59  14.63  #80
  H  10.34  7.39  13.87  #81
  H  9.99  8.52  14.6  #82
  O  14.04  6.05  10.64  #83
  H  13.89  6.32  9.69  #84
  H  14.61  6.71  10.99  #85
  O  7.02  11.13  6.25  #86
  H  7.2  10.28  6.67  #87
  H  7.12  11.83  6.92  #88
  O  10.31  10.28  7.76  #89
  H  9.67  10.87  7.3  #90
  H  10.69  9.67  7.14  #91
  O  7.19  7.52  13.2  #92
  H  8  7.77  13.71  #93
  H  6.77  8.37  12.98  #94
  O  15.1  14.74  15.9  #95
  H  14.38  15.17  15.42  #96
  H  14.93  14.84  16.86  #97
  O  11.12  14.17  16.4  #98
  H  10.29  13.76  16.27  #99
  H  11.13  14.81  15.65  #100
  O  7.5  11.46  11.88  #101
  H  7.09  12.09  11.29  #102
  H  8.1  10.99  11.29  #103
  O  13.05  8.63  13.52  #104
  H  13.55  8.42  14.33  #105
  H  12.54  7.82  13.29  #106
  Q  0.6645  5.39$  2.92$  12.43$
  Q  0.6645  6.36$  3.95$  11.92$
  Q  -1.3290  6.16$  3.21$  12.21$
  Q  0.6645  12.01$  7.13$  2.93$
  Q  0.6645  12.25$  7.8$  4.22$
  Q  -1.3290  12.21$  7.77$  3.41$
  Q  0.6645  19.91$  5.75$  14.32$
  Q  0.6645  19.69$  7.28$  14.03$
  Q  -1.3290  19.84$  6.58$  14.51$
  Q  0.6645  15.95$  13.43$  14.57$
  Q  0.6645  16.16$  12.5$  13.35$
  Q  -1.3290  16.24$  12.74$  14.15$
  Q  0.6645  20.92$  10.23$  13.27$
  Q  0.6645  21.8$  9.85$  14.47$
  Q  -1.3290  21.28$  10.34$  14.02$
  Q  0.6645  17.57$  15.17$  9.79$
  Q  0.6645  17.34$  15.63$  8.27$
  Q  -1.3290  17.76$  15.32$  8.95$
  Q  0.6645  11.12$  14.23$  19.57$
  Q  0.6645  11.53$  13.91$  18.03$
  Q  -1.3290  11.58$  13.88$  18.93$
  Q  0.6645  5.69$  10.3$  11.51$
  Q  0.6645  4.43$  9.61$  11.72$
  Q  -1.3290  5.18$  9.66$  11.42$
  Q  0.6645  10.92$  21.82$  14.1$
  Q  0.6645  10.37$  20.44$  14.07$
  Q  -1.3290  11$  20.99$  14.13$
  Q  0.6645  7.49$  9.61$  19.97$
  Q  0.6645  6.3$  10.05$  19.02$
  Q  -1.3290  6.87$  9.48$  19.38$
  Q  0.6645  10.06$  18.85$  18.76$
  Q  0.6645  9.15$  18.43$  19.96$
  Q  -1.3290  9.63$  18.97$  19.49$
  Q  0.6645  10.92$  20.81$  17.07$
  Q  0.6645  11.15$  19.91$  15.84$
  Q  -1.3290  11.14$  20.07$  16.68$
  Q  0.6645  15.6$  12.54$  9.16$
  Q  0.6645  15.34$  13.4$  7.84$
  Q  -1.3290  15.15$  13.05$  8.59$
  Q  0.6645  17.79$  7.06$  18.14$
  Q  0.6645  16.91$  6.39$  17.01$
  Q  -1.3290  17.32$  6.47$  17.78$
  Q  0.6645  8.17$  2.6$  17.49$
  Q  0.6645  9.76$  2.33$  17.44$
  Q  -1.3290  9.01$  2.66$  17.75$
  Q  0.6645  14.88$  5.21$  3.82$
  Q  0.6645  15.54$  4.63$  5.21$
  Q  -1.3290  15.11$  5.2$  4.66$
  Q  0.6645  17.26$  18.51$  14.37$
  Q  0.6645  16.66$  19.95$  14.72$
  Q  -1.3290  16.78$  19.23$  14.27$
  Q  0.6645  2.81$  4.05$  9.2$
  Q  0.6645  4.08$  4.62$  8.62$
  Q  -1.3290  3.42$  4.11$  8.62$
  Q  0.6645  17.49$  3.49$  6.08$
  Q  0.6645  16.45$  4.25$  6.87$
  Q  -1.3290  16.7$  3.68$  6.31$
  Q  0.6645  19.94$  12.75$  8.62$
  Q  0.6645  19.48$  14.21$  8.94$
  Q  -1.3290  20.03$  13.55$  8.91$
  Q  0.6645  4.66$  10.24$  2.31$
  Q  0.6645  4.64$  11.32$  3.37$
  Q  -1.3290  4.77$  11.01$  2.59$
  Q  0.6645  14.14$  9.07$  20.47$
  Q  0.6645  13.15$  10.19$  20.24$
  Q  -1.3290  13.78$  9.66$  20.02$
  Q  0.6645  9.34$  20.78$  11.19$
  Q  0.6645  10.81$  20.23$  11.27$
  Q  -1.3290  9.99$  20.31$  10.95$
  Q  0.6645  6.68$  15.06$  7.49$
  Q  0.6645  7.84$  14.27$  8.06$
  Q  -1.3290  7.33$  14.9$  7.99$
  Q  0.6645  17.63$  22.04$  12.75$
  Q  0.6645  17.13$  20.63$  12.84$
  Q  -1.3290  17.23$  21.35$  12.47$
  Q  0.6645  14.06$  17.5$  5.65$
  Q  0.6645  15.45$  18.19$  5.59$
  Q  -1.3290  14.91$  17.55$  5.66$
  Q  0.6645  13.69$  4.77$  5.67$
  Q  0.6645  13.6$  3.71$  6.93$
  Q  -1.3290  13.3$  4.32$  6.34$
  Q  0.6645  18.64$  17.74$  16.32$
  Q  0.6645  19.72$  18.65$  15.67$
  Q  -1.3290  19.33$  17.93$  15.88$
  Q  0.6645  20.96$  9.17$  11.36$
  Q  0.6645  20.19$  10.51$  11.36$
  Q  -1.3290  20.3$  9.7$  11.57$
  Q  0.6645  16.69$  9.8$  9.09$
  Q  0.6645  15.89$  9.74$  10.36$
  Q  -1.3290  16.34$  10.11$  9.79$
  Q  0.6645  3.7$  13.47$  4.57$
  Q  0.6645  4.53$  14.34$  3.65$
  Q  -1.3290  3.93$  14.21$  4.25$
  Q  0.6645  13.24$  2.49$  8.75$
  Q  0.6645  13.18$  1.82$  7.35$
  Q  -1.3290  13.54$  2.26$  7.99$
  Q  0.6645  12.99$  20.89$  13.34$
  Q  0.6645  14.18$  21.36$  12.48$
  Q  -1.3290  13.7$  21.35$  13.15$
  Q  0.6645  12.86$  11.57$  5.88$
  Q  0.6645  13.31$  12.04$  4.5$
  Q  -1.3290  12.76$  11.95$  5.12$
  Q  0.6645  4.47$  12.92$  15.02$
  Q  0.6645  5.97$  13.14$  14.93$
  Q  -1.3290  5.29$  12.75$  15.2$
  Q  0.6645  20.21$  5.97$  7.96$
  Q  0.6645  19.67$  4.6$  7.95$
  Q  -1.3290  19.59$  5.41$  8.12$
  Q  0.6645  13.27$  1.35$  14.16$
  Q  0.6645  12.98$  2.83$  14.29$
  Q  -1.3290  13.02$  2.05$  14.57$
  Q  0.6645  14.22$  20.79$  16.5$
  Q  0.6645  14.12$  21.23$  15.1$
  Q  -1.3290  14.54$  20.98$  15.78$
  Q  0.6645  7.42$  7.24$  2.28$
  Q  0.6645  8.01$  6.78$  0.91$
  Q  -1.3290  8.01$  6.9$  1.76$
  Q  0.6645  15.65$  8.74$  3.76$
  Q  0.6645  15.54$  10.12$  3.18$
  Q  -1.3290  15.78$  9.32$  3.16$
  Q  0.6645  18.57$  14.15$  17.17$
  Q  0.6645  17.44$  15.22$  17.13$
  Q  -1.3290  18.08$  14.77$  17.47$
  Q  0.6645  8.1$  3.5$  3.07$
  Q  0.6645  8$  5.06$  2.7$
  Q  -1.3290  7.73$  4.3$  3.03$
  Q  0.6645  16.29$  14.35$  4.23$
  Q  0.6645  17.44$  13.37$  4.56$
  Q  -1.3290  16.6$  13.65$  4.51$
  Q  0.6645  16.01$  5.5$  14.07$
  Q  0.6645  15.81$  4.5$  12.85$
  Q  -1.3290  15.73$  4.77$  13.67$
  Q  0.6645  6.07$  8.97$  3.73$
  Q  0.6645  5.32$  7.6$  3.94$
  Q  -1.3290  5.65$  8.26$  3.49$
  Q  0.6645  17.46$  18.25$  9.31$
  Q  0.6645  16.41$  19.36$  9.61$
  Q  -1.3290  16.66$  18.56$  9.47$
  Q  0.6645  6.08$  1.56$  8.25$
  Q  0.6645  7.5$  2.23$  8.55$
  Q  -1.3290  6.82$  1.96$  8.06$
  Q  0.6645  19.6$  10.05$  14.77$
  Q  0.6645  18.23$  10.12$  15.36$
  Q  -1.3290  18.9$  9.72$  15.07$
  Q  0.6645  7.71$  -0.23$  6$
  Q  0.6645  6.96$  1.02$  6.22$
  Q  -1.3290  7.38$  0.46$  5.72$
  Q  0.6645  11.11$  10.76$  19.49$
  Q  0.6645  11.92$  12.01$  19.85$
  Q  -1.3290  11.55$  11.27$  19.98$
  Q  0.6645  8.94$  18.33$  15.29$
  Q  0.6645  8.26$  18.05$  16.65$
  Q  -1.3290  8.8$  17.9$  16$
  Q  0.6645  10.49$  20.71$  8.79$
  Q  0.6645  11.66$  20.62$  7.86$
  Q  -1.3290  10.97$  20.97$  8.16$
  Q  0.6645  10.7$  8.22$  5.54$
  Q  0.6645  11.88$  7.72$  6.52$
  Q  -1.3290  11.46$  8.25$  6.01$
  Q  0.6645  10.51$  11.94$  2.07$
  Q  0.6645  11.13$  11.45$  3.33$
  Q  -1.3290  10.65$  11.39$  2.63$
  Q  0.6645  9.37$  6.93$  4.82$
  Q  0.6645  8.88$  8.41$  4.7$
  Q  -1.3290  9.08$  7.67$  5.07$
  Q  0.6645  0.57$  4.96$  10.71$
  Q  0.6645  1.97$  4.69$  11.25$
  Q  -1.3290  1.35$  4.65$  10.68$
  Q  0.6645  12.89$  5.98$  7.54$
  Q  0.6645  13.78$  7.3$  7.8$
  Q  -1.3290  13.14$  6.71$  7.93$
  Q  0.6645  6.42$  5.87$  10.62$
  Q  0.6645  7.12$  6.49$  11.99$
  Q  -1.3290  6.94$  5.89$  11.31$
  Q  0.6645  1.68$  11.87$  12.12$
  Q  0.6645  0.32$  12.08$  11.36$
  Q  -1.3290  1.17$  12.05$  11.46$
  Q  0.6645  15.5$  16.06$  21.26$
  Q  0.6645  15.69$  15.11$  19.97$
  Q  -1.3290  15.92$  15.67$  20.56$
  Q  0.6645  4.91$  11.63$  18.3$
  Q  0.6645  5.6$  11.69$  16.88$
  Q  -1.3290  5.58$  11.61$  17.75$
  Q  0.6645  2.09$  9$  16.04$
  Q  0.6645  0.63$  8.89$  16.54$
  Q  -1.3290  1.28$  9.24$  16.12$
  Q  0.6645  19.84$  18.07$  10.2$
  Q  0.6645  19.86$  19.14$  9.05$
  Q  -1.3290  19.6$  18.43$  9.47$
  Q  0.6645  4.68$  15.41$  7.17$
  Q  0.6645  4.72$  15.07$  5.64$
  Q  -1.3290  4.99$  15.42$  6.38$
  Q  0.6645  13.75$  14.23$  19.13$
  Q  0.6645  15.06$  13.51$  18.73$
  Q  -1.3290  14.53$  14.18$  18.82$
  Q  0.6645  7.08$  2.13$  13.92$
  Q  0.6645  6.99$  1.38$  15.2$
  Q  -1.3290  7.2$  1.46$  14.41$
  Q  0.6645  2.56$  12.1$  8.75$
  Q  0.6645  3.99$  12.76$  8.51$
  Q  -1.3290  3.24$  12.39$  8.3$
  Q  0.6645  21.28$  16.76$  11.91$
  Q  0.6645  20.94$  18.14$  12.21$
  Q  -1.3290  20.78$  17.42$  11.87$
  Q  0.6645  13.42$  2.23$  16.64$
  Q  0.6645  14.16$  2.09$  18.05$
  Q  -1.3290  13.5$  2.26$  17.53$
  Q  0.6645  9.38$  0.89$  5.88$
  Q  0.6645  10.16$  0.29$  7.09$
  Q  -1.3290  9.93$  0.91$  6.54$
  Q  0.6645  8.6$  10.67$  3.33$
  Q  0.6645  7.61$  10.76$  4.41$
  Q  -1.3290  8$  10.37$  3.82$
  Q  0.6645  7.43$  5.87$  5.74$
  Q  0.6645  7.27$  4.67$  4.9$
  Q  -1.3290  7.16$  5.1$  5.61$
  Q  0.6645  10.61$  5.03$  3.58$
  Q  0.6645  10.26$  4.55$  5.03$
  Q  -1.3290  10.3$  5.07$  4.35$
  Q  0.6645  9.42$  2.95$  6.63$
  Q  0.6645  8.52$  4.06$  6.47$
  Q  -1.3290  9.23$  3.75$  6.68$
  Q  0.6645  7.78$  15.98$  11.69$
  Q  0.6645  8.18$  14.73$  12.58$
  Q  -1.3290  8.07$  15.2$  11.87$
  Q  0.6645  17.25$  7.65$  5.31$
  Q  0.6645  15.93$  6.97$  5.51$
  Q  -1.3290  16.46$  7.66$  5.45$
  Q  0.6645  12.11$  3.21$  3.62$
  Q  0.6645  12.08$  3.34$  5$
  Q  -1.3290  12.01$  2.89$  4.33$
  Q  0.6645  8.32$  19.47$  5.65$
  Q  0.6645  9.03$  19.79$  7.03$
  Q  -1.3290  8.42$  19.81$  6.44$
  Q  0.6645  6.16$  1.53$  11.13$
  Q  0.6645  5$  0.84$  10.63$
  Q  -1.3290  5.81$  0.87$  10.85$
  Q  0.6645  3.31$  8.52$  13.15$
  Q  0.6645  2.02$  8.91$  12.06$
  Q  -1.3290  2.71$  9.02$  12.67$
  Q  0.6645  5.72$  15.15$  12.43$
  Q  0.6645  4.2$  15.05$  12.76$
  Q  -1.3290  4.92$  14.78$  12.5$
  Q  0.6645  1.94$  5.24$  5.46$
  Q  0.6645  2.77$  5.15$  6.68$
  Q  -1.3290  2.35$  5.56$  6.09$
  Q  0.6645  13.25$  20.57$  9.04$
  Q  0.6645  12.6$  21.57$  10.22$
  Q  -1.3290  13.16$  20.94$  9.84$
  Q  0.6645  9.16$  10.28$  21.71$
  Q  0.6645  9.59$  11.32$  20.77$
  Q  -1.3290  9.03$  10.94$  21.23$
  Q  0.6645  2.92$  3.15$  12.52$
  Q  0.6645  3.18$  1.73$  12.71$
  Q  -1.3290  3.33$  2.47$  12.35$
  Q  0.6645  8.56$  18.72$  10.56$
  Q  0.6645  8.15$  17.91$  9.43$
  Q  -1.3290  8.19$  18.08$  10.24$
  Q  0.6645  17.84$  6.71$  15.03$
  Q  0.6645  16.33$  7.36$  15.23$
  Q  -1.3290  16.94$  6.73$  15.15$
  Q  0.6645  6.22$  14.85$  17.28$
  Q  0.6645  5.45$  16.07$  16.59$
  Q  -1.3290  5.59$  15.42$  17.16$
  Q  0.6645  16.63$  14.7$  6.36$
  Q  0.6645  15.76$  15.94$  6.61$
  Q  -1.3290  16.08$  15.18$  6.79$
  Q  0.6645  4.16$  17.59$  15.09$
  Q  0.6645  5.3$  18.54$  15.67$
  Q  -1.3290  4.92$  17.81$  15.41$
  Q  0.6645  15.47$  8.89$  16.38$
  Q  0.6645  14.28$  8.02$  16.85$
  Q  -1.3290  14.91$  8.28$  16.35$
  Q  0.6645  10.46$  9.4$  1.48$
  Q  0.6645  9.39$  8.63$  1.36$
  Q  -1.3290  10$  8.95$  1.01$
  Q  0.6645  12.84$  5.34$  17.04$
  Q  0.6645  12.27$  6.68$  17.13$
  Q  -1.3290  12.47$  5.97$  16.72$
  Q  0.6645  5.45$  18.13$  8.72$
  Q  0.6645  6.23$  17.81$  9.97$
  Q  -1.3290  5.59$  17.75$  9.46$
  Q  0.6645  20.34$  12.12$  17.6$
  Q  0.6645  19.94$  12.34$  16.1$
  Q  -1.3290  20.06$  12.56$  16.91$
  Q  0.6645  8.81$  1.66$  11.52$
  Q  0.6645  7.91$  0.54$  11.06$
  Q  -1.3290  8.63$  0.91$  11.18$
  Q  0.6645  8.88$  11.9$  16.83$
  Q  0.6645  8.13$  13.08$  17.23$
  Q  -1.3290  8.56$  12.67$  16.69$
  Q  0.6645  13.02$  8.63$  1.73$
  Q  0.6645  14.17$  9$  0.91$
  Q  -1.3290  13.46$  8.62$  1.02$
  Q  0.6645  7.96$  17.18$  6.25$
  Q  0.6645  6.55$  16.52$  5.84$
  Q  -1.3290  7.32$  16.94$  5.73$
  Q  0.6645  10$  13.84$  21.38$
  Q  0.6645  8.75$  13.77$  20.36$
  Q  -1.3290  9.46$  14.14$  20.77$
  Q  0.6645  6.43$  11.8$  1.54$
  Q  0.6645  7.46$  11.86$  0.44$
  Q  -1.3290  6.99$  12.18$  1.05$
  Q  0.6645  20.39$  10.76$  7.15$
  Q  0.6645  19.02$  10.12$  7.65$
  Q  -1.3290  19.58$  10.76$  7.43$
  Q  0.6645  6.64$  10.74$  14.9$
  Q  0.6645  7.15$  9.36$  15.5$
  Q  -1.3290  7.12$  10.04$  14.97$
  Q  0.6645  17.88$  8.74$  13.6$
  Q  0.6645  18.58$  8.7$  12.25$
  Q  -1.3290  18.03$  8.42$  12.85$
  Q  0.6645  2.22$  14.64$  15.38$
  Q  0.6645  2.23$  13.37$  14.58$
  Q  -1.3290  2.09$  14.21$  14.69$
  Q  0.6645  8.42$  13.38$  14.75$
  Q  0.6645  7.96$  12.61$  13.46$
  Q  -1.3290  7.96$  13.25$  14.03$
  Q  0.6645  6.05$  14.05$  9.83$
  Q  0.6645  5.14$  13.54$  10.93$
  Q  -1.3290  5.55$  13.5$  10.19$
  Q  0.6645  1.49$  13.81$  10.52$
  Q  0.6645  0.46$  14.32$  9.48$
  Q  -1.3290  1.14$  14.38$  9.99$
  Q  0.6645  4.34$  16.24$  9.39$
  Q  0.6645  3.23$  15.22$  9.56$
  Q  -1.3290  3.68$  15.77$  9.11$
  Q  0.6645  6.62$  12.97$  18.64$
  Q  0.6645  6.8$  14.16$  19.48$
  Q  -1.3290  7.05$  13.62$  18.94$
  Q  0.6645  6.49$  20.59$  11.98$
  Q  0.6645  6.95$  21.52$  13.07$
  Q  -1.3290  6.92$  20.81$  12.67$
  Q  0.6645  9.64$  7.18$  18.45$
  Q  0.6645  10.76$  7.62$  19.43$
  Q  -1.3290  9.96$  7.61$  19.11$
  Q  0.6645  11.84$  1.84$  11.17$
  Q  0.6645  10.85$  0.65$  11.34$
  Q  -1.3290  11.62$  1.01$  11.27$
  Q  0.6645  18.51$  8.01$  7.2$
  Q  0.6645  18.29$  8.03$  8.75$
  Q  -1.3290  18.16$  8.26$  7.94$
  Q  0.6645  1.48$  11.25$  14.26$
  Q  0.6645  2.52$  10.77$  13.54$
  Q  -1.3290  2.1$  11.39$  13.83$
  Q  0.6645  10.23$  5.51$  16.98$
  Q  0.6645  9.24$  6.3$  16.13$
  Q  -1.3290  9.49$  5.86$  16.78$
  Q  0.6645  16.03$  5.12$  10.63$
  Q  0.6645  17.28$  4.35$  11.04$
  Q  -1.3290  16.66$  4.91$  11.15$
  Q  0.6645  17.74$  5.77$  7.9$
  Q  0.6645  16.76$  6.97$  7.87$
  Q  -1.3290  16.98$  6.14$  7.88$
  Q  0.6645  10.84$  15.97$  17.75$
  Q  0.6645  10.52$  17.41$  17.24$
  Q  -1.3290  10.87$  16.83$  17.78$
  Q  0.6645  3.87$  0.85$  8.24$
  Q  0.6645  3.71$  2.23$  9.06$
  Q  -1.3290  3.63$  1.37$  8.91$
  Q  0.6645  0.32$  9.75$  7.96$
  Q  0.6645  0.6$  10.55$  6.7$
  Q  -1.3290  0.28$  9.9$  7.13$
  Q  0.6645  8.77$  16.45$  8.14$
  Q  0.6645  10.12$  17.21$  7.92$
  Q  -1.3290  9.28$  17.1$  7.93$
  Q  0.6645  15.18$  21.46$  9.61$
  Q  0.6645  16.5$  21.46$  10.54$
  Q  -1.3290  16.02$  21.34$  9.82$
  Q  0.6645  2.41$  11.05$  16.73$
  Q  0.6645  2.67$  12.49$  17.22$
  Q  -1.3290  2.37$  11.72$  17.26$
  Q  0.6645  18.55$  17.67$  7.59$
  Q  0.6645  18.45$  16.98$  6.13$
  Q  -1.3290  18.28$  17.57$  6.77$
  Q  0.6645  3.39$  11.35$  5.16$
  Q  0.6645  4.86$  11.5$  5.8$
  Q  -1.3290  4.25$  11.5$  5.19$
  Q  0.6645  9.67$  18.76$  12.98$
  Q  0.6645  8.38$  19.66$  13.23$
  Q  -1.3290  9.07$  19.16$  13.44$
  Q  0.6645  6.68$  7.08$  16.94$
  Q  0.6645  6.89$  8.48$  17.61$
  Q  -1.3290  6.7$  7.95$  16.97$
  Q  0.6645  19.24$  14.34$  14.25$
  Q  0.6645  18.21$  13.24$  14.23$
  Q  -1.3290  18.99$  13.54$  14.25$
  Q  0.6645  18.06$  6.48$  10.94$
  Q  0.6645  19.04$  6.29$  9.76$
  Q  -1.3290  18.65$  6.73$  10.38$
  Q  0.6645  9.82$  15$  5.16$
  Q  0.6645  8.87$  15.99$  4.61$
  Q  -1.3290  9.56$  15.55$  4.57$
  Q  0.6645  0.08$  7.37$  11.26$
  Q  0.6645  0.71$  7.94$  10.11$
  Q  -1.3290  0.6$  7.88$  10.92$
  Q  0.6645  9.95$  17.19$  11.42$
  Q  0.6645  11.51$  17.51$  12$
  Q  -1.3290  10.59$  17.39$  12.01$
  Q  0.6645  1.71$  4.72$  14.11$
  Q  0.6645  2.87$  5.63$  13.65$
  Q  -1.3290  2.22$  5.1$  13.52$
  Q  0.6645  4.5$  8.31$  2.05$
  Q  0.6645  3.02$  8.39$  1.85$
  Q  -1.3290  3.8$  8.49$  1.63$
  Q  0.6645  14.59$  9.66$  7.82$
  Q  0.6645  15.31$  8.69$  6.88$
  Q  -1.3290  14.83$  8.9$  7.55$
  Q  0.6645  4.26$  7.7$  14.74$
  Q  0.6645  5.06$  7.18$  13.64$
  Q  -1.3290  4.37$  7.39$  13.98$
  Q  0.6645  11.33$  14.53$  7.24$
  Q  0.6645  11.63$  13.7$  6.06$
  Q  -1.3290  11.14$  14.1$  6.56$
  Q  0.6645  4.09$  6.06$  5.43$
  Q  0.6645  5.49$  5.47$  5.03$
  Q  -1.3290  4.81$  5.99$  4.94$
  Q  0.6645  13.19$  19.35$  11.17$
  Q  0.6645  13.81$  18.3$  11.9$
  Q  -1.3290  13.2$  18.82$  11.81$
  Q  0.6645  2.38$  9.89$  8.83$
  Q  0.6645  1.6$  10.43$  10.18$
  Q  -1.3290  1.68$  10.17$  9.31$
  Q  0.6645  4.96$  9.07$  16.28$
  Q  0.6645  3.91$  8.48$  17.16$
  Q  -1.3290  4.17$  8.73$  16.45$
  Q  0.6645  11.36$  17.3$  5.27$
  Q  0.6645  11.93$  18.69$  4.97$
  Q  -1.3290  11.88$  17.95$  5.39$
  Q  0.6645  12.91$  19.25$  6.81$
  Q  0.6645  13.51$  20.7$  6.73$
  Q  -1.3290  13.21$  19.99$  7.13$
  Q  0.6645  14.14$  16.63$  19.08$
  Q  0.6645  12.78$  17.26$  18.66$
  Q  -1.3290  13.47$  17.17$  19.13$
  Q  0.6645  6.59$  14.77$  2.81$
  Q  0.6645  6.7$  13.36$  2.34$
  Q  -1.3290  6.42$  13.96$  2.83$
  Q  0.6645  7.88$  4.97$  17.77$
  Q  0.6645  6.71$  5.43$  18.61$
  Q  -1.3290  7.08$  4.9$  18.05$
  Q  0.6645  16.82$  3.26$  14.55$
  Q  0.6645  17.01$  2.03$  15.61$
  Q  -1.3290  17.24$  2.63$  15.01$
  Q  0.6645  16.21$  17.8$  17$
  Q  0.6645  17.1$  18$  18.22$
  Q  -1.3290  16.94$  17.8$  17.44$
  Q  0.6645  20$  12.96$  12.33$
  Q  0.6645  20$  12.92$  10.71$
  Q  -1.3290  20.05$  12.62$  11.53$
  Q  0.6645  18.55$  9.31$  18.79$
  Q  0.6645  18.68$  9.48$  17.26$
  Q  -1.3290  18.66$  9.06$  18$
  Q  0.6645  4.96$  6.92$  9.08$
  Q  0.6645  6.12$  5.99$  8.33$
  Q  -1.3290  5.4$  6.16$  8.82$
  Q  0.6645  12.39$  16.35$  8.76$
  Q  0.6645  11.1$  15.63$  9.2$
  Q  -1.3290  11.62$  16.04$  8.66$
  Q  0.6645  13.31$  4.25$  10.9$
  Q  0.6645  11.93$  3.96$  10.31$
  Q  -1.3290  12.63$  3.79$  10.7$
  Q  0.6645  6.14$  17.46$  13.7$
  Q  0.6645  7.42$  17.63$  13.08$
  Q  -1.3290  6.65$  17.45$  13.04$
  Q  0.6645  12.81$  20.15$  18.16$
  Q  0.6645  14.12$  19.32$  18.27$
  Q  -1.3290  13.66$  20.01$  18.17$
  Q  0.6645  19.23$  12.14$  4.58$
  Q  0.6645  19.05$  12.13$  6.05$
  Q  -1.3290  19.1$  12.49$  5.31$
  Q  0.6645  20.27$  6.19$  11.39$
  Q  0.6645  21$  5.4$  12.4$
  Q  -1.3290  20.95$  5.9$  11.73$
  Q  0.6645  16.18$  8.07$  12.08$
  Q  0.6645  14.75$  8.48$  12.48$
  Q  -1.3290  15.35$  8.2$  11.96$
  Q  0.6645  16.47$  11.16$  16.93$
  Q  0.6645  16.08$  11.19$  15.5$
  Q  -1.3290  16.32$  10.82$  16.19$
  Q  0.6645  1.09$  12.73$  5.92$
  Q  0.6645  2.34$  12.08$  6.64$
  Q  -1.3290  1.69$  12.13$  6.07$
  Q  0.6645  15.16$  11.35$  18.77$
  Q  0.6645  16.61$  11.57$  19.24$
  Q  -1.3290  15.97$  11.68$  18.7$
  Q  0.6645  15.36$  12.43$  3.66$
  Q  0.6645  14.35$  12.45$  2.57$
  Q  -1.3290  14.78$  12.1$  3.18$
  Q  0.6645  10.06$  2.12$  13.85$
  Q  0.6645  9.05$  1.12$  14.68$
  Q  -1.3290  9.83$  1.45$  14.36$
  Q  0.6645  5.66$  1.66$  17.32$
  Q  0.6645  6.14$  3.24$  17.07$
  Q  -1.3290  6.05$  2.37$  16.96$
  Q  0.6645  4.58$  9.6$  9.25$
  Q  0.6645  4.47$  9.14$  7.79$
  Q  -1.3290  4.26$  9.21$  8.58$
  Q  0.6645  18.13$  13.36$  19.33$
  Q  0.6645  18.8$  12.58$  20.47$
  Q  -1.3290  18.24$  13.11$  20.14$
  Q  0.6645  19.36$  16.37$  14.43$
  Q  0.6645  19.44$  16.54$  12.95$
  Q  -1.3290  19.17$  16.19$  13.66$
*
