! NoMOPrint PrintBasis #MINIPRINT SMALLPRINT LARGEPRINT
! ALLPOP XYZFILE
#! BP86 3-21G   TightSCF
! ENGRAD
! B3LYP NormalPNO PModel #DecontractAux
#! VerySlowConv 
 %maxcore 5000
 %scf  maxiter   500  end 

%pal
    nprocs 32
end

%basis
    NewGTO O    # New basis for oxygen
        "aug-cc-pVTZ"
    end
    NewGTO C    # New basis for carbon
        "aug-cc-pVTZ"
    end
    NewGTO H    # New basis for hydrogen
        "cc-pVTZ"
    end
end

* xyz 0   1
  C  11.48  12.05  9.82  #1
  H  11.89  11.07  9.48  #2
  H  12.43  12.59  10.16  #3
  C  10.39  12.03  10.89  #4
  H  10.18  13.06  11.21  #5
  H  9.41  11.73  10.6  #6
  C  10.83  11.26  12.19  #7
  H  10.24  11.65  12.98  #8
  H  11.93  11.36  12.47  #9
  C  10.43  9.76  12.17  #10
  H  11.28  9.25  11.57  #11
  H  9.46  9.51  11.67  #12
  O  10.35  9.14  13.5  #13
  H  11.24  8.77  13.64  #14
  O  10.93  12.84  8.72  #15
  H  10.29  12.33  8.2  #16
  O  9.16  11.59  6.89  #17
  H  9.26  10.8  7.4  #18
  H  8.3  11.98  7.2  #19
  O  11.98  8.77  9.21  #20
  H  11.89  7.84  8.96  #21
  H  12.17  9.15  8.36  #22
  O  14.98  10.73  13.03  #23
  H  14.98  11.67  12.84  #24
  H  14.9  10.14  12.29  #25
  O  9.4  9.12  8.11  #26
  H  9.13  8.21  7.86  #27
  H  10.21  9.06  8.61  #28
  O  13.42  12.8  7.05  #29
  H  12.56  12.85  7.48  #30
  H  14.04  12.38  7.64  #31
  O  7.11  7.18  12.09  #32
  H  7.12  7.92  11.5  #33
  H  8.02  7.11  12.43  #34
  O  13.16  9.11  14.73  #35
  H  13.63  9.97  14.52  #36
  H  13.81  8.42  14.49  #37
  O  10.81  6.29  8.06  #38
  H  10.33  6.37  7.25  #39
  H  11.64  5.73  7.92  #40
  O  10.8  10.75  4.91  #41
  H  10.77  10.14  4.15  #42
  H  9.84  10.84  5.13  #43
  O  14.02  8.75  17.44  #44
  H  13.58  8.5  16.62  #45
  H  14.89  8.43  17.3  #46
  O  9.76  6.36  12.88  #47
  H  9.82  6.97  13.54  #48
  H  9.85  5.47  13.29  #49
  O  8.78  8.21  15.18  #50
  H  9.31  8.84  14.61  #51
  H  8.55  8.69  16.01  #52
  O  14.33  9.35  10.61  #53
  H  14.73  9.96  9.92  #54
  H  13.48  9.09  10.15  #55
  O  5.57  5.22  11.23  #56
  H  5.47  4.54  11.92  #57
  H  6.14  5.93  11.63  #58
  O  8.27  11.56  15.14  #59
  H  8.86  11.05  15.71  #60
  H  7.54  10.98  14.95  #61
  O  14.08  13.51  10.25  #62
  H  13.8  13.76  11.12  #63
  H  14.14  14.31  9.67  #64
  O  13.47  12.29  15.2  #65
  H  14.44  12.28  15.34  #66
  H  13.3  12.74  14.4  #67
  O  15.96  8.38  14.17  #68
  H  16.76  8.19  13.64  #69
  H  15.71  9.29  13.84  #70
  O  15.41  11.47  9  #71
  H  16.23  11.89  9.26  #72
  H  14.68  11.82  9.56  #73
  O  10.78  13.02  15.87  #74
  H  11.69  12.74  15.7  #75
  H  10.2  12.74  15.2  #76
  O  7.24  9.32  10.11  #77
  H  6.62  9.81  9.6  #78
  H  8.03  9.18  9.56  #79
  O  14.36  14.8  5.49  #80
  H  14.04  14.02  5.99  #81
  H  15.32  14.73  5.31  #82
  O  8.58  14.27  14.07  #83
  H  8.37  13.43  14.48  #84
  H  8.03  14.31  13.26  #85
  O  12.86  9.71  6.72  #86
  H  12.31  10.16  6.08  #87
  H  13.79  10.14  6.61  #88
  O  6.81  12.63  7.6  #89
  H  7.09  13.54  7.81  #90
  H  6.04  12.48  8.16  #91
  O  13.89  5.84  13.57  #92
  H  14.66  6.28  13.97  #93
  H  14.12  6.1  12.66  #94
  O  10.72  15.41  9.09  #95
  H  10.91  14.43  8.96  #96
  H  11.26  15.9  8.4  #97
  Q  0.6645  19.33$  10.39$  13.85$
  Q  0.6645  18.74$  11.84$  13.58$
  Q  -1.3290  19.28$  11.26$  13.95$
  Q  0.6645  1.85$  8.62$  18.54$
  Q  0.6645  2.74$  8.16$  17.51$
  Q  -1.3290  2.11$  8.58$  17.77$
  Q  0.6645  20.07$  16.5$  11.57$
  Q  0.6645  21.56$  16.62$  11.99$
  Q  -1.3290  20.79$  16.28$  11.95$
  Q  0.6645  19.53$  5.4$  10.36$
  Q  0.6645  19.71$  5.82$  8.84$
  Q  -1.3290  19.42$  5.89$  9.64$
  Q  0.6645  5.65$  17.6$  4.95$
  Q  0.6645  5.77$  16.71$  3.71$
  Q  -1.3290  5.9$  16.92$  4.51$
  Q  0.6645  8.88$  19.23$  13.5$
  Q  0.6645  7.6$  18.36$  13.66$
  Q  -1.3290  8.06$  19.03$  13.39$
  Q  0.6645  13.32$  11.37$  19.77$
  Q  0.6645  14.1$  10.78$  20.92$
  Q  -1.3290  13.49$  11.22$  20.58$
  Q  0.6645  10.76$  7.89$  16.72$
  Q  0.6645  11.88$  7.13$  17.37$
  Q  -1.3290  11.09$  7.31$  17.2$
  Q  0.6645  5.21$  15.64$  5.6$
  Q  0.6645  4.37$  14.55$  5.63$
  Q  -1.3290  4.63$  15.2$  5.99$
  Q  0.6645  16.48$  14.66$  9.97$
  Q  0.6645  16.01$  15.73$  10.99$
  Q  -1.3290  16.55$  15.23$  10.6$
  Q  0.6645  7.69$  6.68$  15.32$
  Q  0.6645  7.09$  5.64$  16.27$
  Q  -1.3290  7.55$  5.91$  15.63$
  Q  0.6645  4.1$  5.55$  10.02$
  Q  0.6645  2.62$  5.74$  9.87$
  Q  -1.3290  3.41$  5.77$  9.61$
  Q  0.6645  3.64$  13.3$  19.34$
  Q  0.6645  4.57$  13.14$  18.07$
  Q  -1.3290  3.87$  13.38$  18.52$
  Q  0.6645  19.65$  6.44$  14.73$
  Q  0.6645  18.81$  7.21$  15.7$
  Q  -1.3290  19.39$  7.13$  15.09$
  Q  0.6645  10.09$  5.92$  11.17$
  Q  0.6645  10.23$  5.49$  9.6$
  Q  -1.3290  10.03$  5.41$  10.44$
  Q  0.6645  14.88$  16.63$  6.23$
  Q  0.6645  15.31$  17.76$  5.32$
  Q  -1.3290  15.33$  17.28$  6.01$
  Q  0.6645  12.22$  17.57$  7.05$
  Q  0.6645  11.91$  16.41$  6.15$
  Q  -1.3290  12.03$  16.78$  6.88$
  Q  0.6645  17.84$  19.34$  13.4$
  Q  0.6645  17.08$  19.86$  12.13$
  Q  -1.3290  17.72$  19.48$  12.56$
  Q  0.6645  17.53$  5.56$  7.3$
  Q  0.6645  17.02$  4.08$  7.42$
  Q  -1.3290  17.5$  4.72$  7.12$
  Q  0.6645  9.67$  18.26$  4.25$
  Q  0.6645  11.05$  19.1$  4.34$
  Q  -1.3290  10.19$  18.95$  4.19$
  Q  0.6645  13.4$  17.16$  17.05$
  Q  0.6645  12.74$  15.8$  17.67$
  Q  -1.3290  13.31$  16.5$  17.6$
  Q  0.6645  1.89$  13.6$  5.58$
  Q  0.6645  2.06$  12.47$  4.42$
  Q  -1.3290  2.3$  13.07$  5.03$
  Q  0.6645  3.02$  10.23$  5.55$
  Q  0.6645  3.47$  8.95$  6.24$
  Q  -1.3290  3.57$  9.76$  5.92$
  Q  0.6645  6.75$  1.87$  8.6$
  Q  0.6645  6.7$  1.19$  9.94$
  Q  -1.3290  6.99$  1.32$  9.17$
  Q  0.6645  13.71$  13.5$  1.11$
  Q  0.6645  13.59$  13.06$  -0.46$
  Q  -1.3290  13.71$  13.61$  0.21$
  Q  0.6645  15.65$  4.81$  17.34$
  Q  0.6645  16.74$  3.73$  17.55$
  Q  -1.3290  16.42$  4.45$  17.25$
  Q  0.6645  15.94$  21.58$  10.88$
  Q  0.6645  15.14$  20.99$  11.88$
  Q  -1.3290  15.78$  20.98$  11.37$
  Q  0.6645  11.85$  20.53$  16.66$
  Q  0.6645  10.42$  20.45$  16.05$
  Q  -1.3290  11$  20.37$  16.67$
  Q  0.6645  13.39$  0.92$  7.41$
  Q  0.6645  12.67$  2.04$  6.59$
  Q  -1.3290  13.3$  1.49$  6.79$
  Q  0.6645  10.29$  7.89$  18.94$
  Q  0.6645  10.16$  8.76$  20.12$
  Q  -1.3290  9.88$  8.19$  19.58$
  Q  0.6645  13.47$  11.83$  17.17$
  Q  0.6645  13.92$  10.63$  17.86$
  Q  -1.3290  13.78$  11.45$  17.78$
  Q  0.6645  10.86$  16.19$  14.42$
  Q  0.6645  10.23$  14.99$  13.75$
  Q  -1.3290  10.75$  15.64$  13.8$
  Q  0.6645  6.26$  20.55$  10.67$
  Q  0.6645  5.15$  21.4$  10.06$
  Q  -1.3290  5.61$  21.07$  10.68$
  Q  0.6645  1.06$  8.83$  12.58$
  Q  0.6645  0.7$  8.68$  14.16$
  Q  -1.3290  1.16$  8.57$  13.42$
  Q  0.6645  6.65$  4.78$  9.76$
  Q  0.6645  8.04$  4.97$  9.63$
  Q  -1.3290  7.31$  4.73$  9.37$
  Q  0.6645  9.69$  12.41$  2.29$
  Q  0.6645  10.96$  13.14$  2.49$
  Q  -1.3290  10.38$  12.78$  2.03$
  Q  0.6645  1.43$  16.19$  6.13$
  Q  0.6645  3.02$  16.59$  5.95$
  Q  -1.3290  2.14$  16.57$  5.79$
  Q  0.6645  13.21$  5.17$  17.43$
  Q  0.6645  14.26$  5.94$  18.27$
  Q  -1.3290  13.9$  5.68$  17.58$
  Q  0.6645  15.04$  2.54$  11.16$
  Q  0.6645  14.4$  2.94$  9.85$
  Q  -1.3290  14.58$  2.44$  10.5$
  Q  0.6645  18.1$  16.53$  10.53$
  Q  0.6645  18.52$  18$  10.85$
  Q  -1.3290  18.55$  17.25$  10.44$
  Q  0.6645  11.08$  14.64$  4.45$
  Q  0.6645  10.62$  15.75$  3.49$
  Q  -1.3290  10.71$  15.35$  4.25$
  Q  0.6645  7.51$  10.44$  19.1$
  Q  0.6645  8.3$  11.78$  19.59$
  Q  -1.3290  8.05$  11.13$  19.1$
  Q  0.6645  16.03$  11.21$  6.25$
  Q  0.6645  16.4$  9.86$  5.97$
  Q  -1.3290  15.89$  10.48$  5.97$
  Q  0.6645  15.82$  2.4$  8.58$
  Q  0.6645  14.94$  2.46$  7.43$
  Q  -1.3290  15.56$  2.74$  7.89$
  Q  0.6645  20.32$  14.51$  10.82$
  Q  0.6645  20.53$  13.32$  10.09$
  Q  -1.3290  20.13$  14.02$  10.21$
  Q  0.6645  10.29$  7.15$  1.33$
  Q  0.6645  9.82$  7.97$  0.15$
  Q  -1.3290  9.72$  7.57$  0.89$
  Q  0.6645  13.59$  3.01$  16.47$
  Q  0.6645  15.02$  2.37$  16.69$
  Q  -1.3290  14.17$  2.46$  16.79$
  Q  0.6645  4.66$  13.34$  12.42$
  Q  0.6645  4.31$  14.59$  13$
  Q  -1.3290  4.28$  13.79$  12.97$
  Q  0.6645  11.6$  19.88$  11.2$
  Q  0.6645  11.65$  18.44$  11.58$
  Q  -1.3290  11.78$  19.29$  11.7$
  Q  0.6645  19.93$  15.58$  6.94$
  Q  0.6645  19.68$  14.94$  8.31$
  Q  -1.3290  19.55$  15.49$  7.68$
  Q  0.6645  9.95$  4.02$  5.98$
  Q  0.6645  11.52$  4.14$  6.09$
  Q  -1.3290  10.76$  3.78$  5.87$
  Q  0.6645  14.19$  2.43$  14.11$
  Q  0.6645  14.85$  3.75$  13.68$
  Q  -1.3290  14.85$  2.95$  13.99$
  Q  0.6645  4.21$  9.63$  2.33$
  Q  0.6645  4.43$  8.96$  3.7$
  Q  -1.3290  4$  9.16$  3.01$
  Q  0.6645  13.19$  20.44$  12.94$
  Q  0.6645  13.18$  22.09$  13.18$
  Q  -1.3290  13.46$  21.22$  13.22$
  Q  0.6645  5.8$  12.43$  16.55$
  Q  0.6645  6.72$  12.14$  17.69$
  Q  -1.3290  6.24$  12.64$  17.2$
  Q  0.6645  14.33$  9.44$  4.17$
  Q  0.6645  13.25$  9.71$  3.06$
  Q  -1.3290  13.96$  9.87$  3.52$
  Q  0.6645  16.84$  8.02$  4.73$
  Q  0.6645  18.3$  7.9$  5.14$
  Q  -1.3290  17.65$  8.29$  4.82$
  Q  0.6645  6.63$  16.42$  17.73$
  Q  0.6645  5.14$  16.34$  17.23$
  Q  -1.3290  5.86$  16.73$  17.51$
  Q  0.6645  11.72$  7.56$  4.51$
  Q  0.6645  12.54$  8.41$  5.47$
  Q  -1.3290  12.45$  7.9$  4.8$
  Q  0.6645  10.23$  15.02$  20.39$
  Q  0.6645  8.95$  15.6$  19.61$
  Q  -1.3290  9.5$  15.01$  19.91$
  Q  0.6645  12.03$  2.31$  14.23$
  Q  0.6645  12.31$  2.36$  12.68$
  Q  -1.3290  12.45$  2.18$  13.48$
  Q  0.6645  17.21$  4.35$  15.5$
  Q  0.6645  16.65$  3.52$  14.35$
  Q  -1.3290  17.23$  4.02$  14.72$
  Q  0.6645  4.16$  3.16$  10.67$
  Q  0.6645  4.19$  3.82$  9.18$
  Q  -1.3290  3.97$  3.26$  9.81$
  Q  0.6645  6.46$  21.09$  14.94$
  Q  0.6645  7.05$  21.17$  13.43$
  Q  -1.3290  6.72$  21.48$  14.17$
  Q  0.6645  15.44$  16.56$  1.1$
  Q  0.6645  15.38$  17.01$  2.62$
  Q  -1.3290  15.76$  16.75$  1.88$
  Q  0.6645  4.29$  9.9$  9.69$
  Q  0.6645  3.98$  10.57$  8.32$
  Q  -1.3290  4.35$  10.51$  9.07$
  Q  0.6645  4.68$  2.23$  15.69$
  Q  0.6645  5.98$  1.92$  16.22$
  Q  -1.3290  5.18$  1.78$  16.12$
  Q  0.6645  19.97$  12.26$  7.68$
  Q  0.6645  21.34$  12.42$  7.09$
  Q  -1.3290  20.79$  12.34$  7.71$
  Q  0.6645  7.89$  6.32$  6.13$
  Q  0.6645  7.91$  5.17$  7.24$
  Q  -1.3290  8.23$  5.63$  6.6$
  Q  0.6645  12.28$  8.56$  21.37$
  Q  0.6645  12.06$  10.08$  21.07$
  Q  -1.3290  11.82$  9.25$  21.22$
  Q  0.6645  17.37$  9.23$  20.23$
  Q  0.6645  16.31$  8.34$  20.96$
  Q  -1.3290  16.99$  8.49$  20.48$
  Q  0.6645  14.52$  7.36$  21.97$
  Q  0.6645  14.08$  7.97$  20.57$
  Q  -1.3290  14.33$  7.99$  21.38$
  Q  0.6645  17.31$  6.49$  19.9$
  Q  0.6645  16.73$  5.56$  18.85$
  Q  -1.3290  16.9$  5.78$  19.62$
  Q  0.6645  9.15$  7.84$  4.37$
  Q  0.6645  9.91$  7.86$  3.05$
  Q  -1.3290  9.83$  7.79$  3.86$
  Q  0.6645  10.53$  20.12$  9.1$
  Q  0.6645  11.73$  21.13$  9.34$
  Q  -1.3290  11.06$  20.68$  9.55$
  Q  0.6645  1.18$  14.83$  10.16$
  Q  0.6645  1.68$  16.02$  9.29$
  Q  -1.3290  1.58$  15.19$  9.52$
  Q  0.6645  4.59$  15.08$  7.9$
  Q  0.6645  3.75$  15.09$  9.21$
  Q  -1.3290  4.46$  15.13$  8.73$
  Q  0.6645  7.41$  16.26$  9.65$
  Q  0.6645  7.18$  17.52$  10.52$
  Q  -1.3290  7.18$  16.68$  10.33$
  Q  0.6645  0.92$  12.64$  10.74$
  Q  0.6645  0.02$  12.31$  9.5$
  Q  -1.3290  0.25$  12.31$  10.34$
  Q  0.6645  10.46$  11.22$  16.9$
  Q  0.6645  9.48$  10.51$  17.8$
  Q  -1.3290  10.04$  10.54$  17.19$
  Q  0.6645  11.06$  9.66$  1.27$
  Q  0.6645  11.29$  10.9$  2.09$
  Q  -1.3290  11.26$  10.08$  1.95$
  Q  0.6645  18.8$  10.9$  20.08$
  Q  0.6645  17.93$  11.65$  19.04$
  Q  -1.3290  18.22$  10.96$  19.47$
  Q  0.6645  13.62$  15.83$  8.13$
  Q  0.6645  14.79$  16.43$  9.1$
  Q  -1.3290  14.35$  15.86$  8.61$
  Q  0.6645  13.02$  19.81$  5.02$
  Q  0.6645  13.15$  18.39$  4.91$
  Q  -1.3290  12.82$  19.04$  5.21$
  Q  0.6645  16.31$  16.1$  14.7$
  Q  0.6645  15.1$  17.01$  14.7$
  Q  -1.3290  15.65$  16.49$  14.37$
  Q  0.6645  14.26$  -0.5$  9.46$
  Q  0.6645  13.71$  0.9$  9.73$
  Q  -1.3290  13.68$  0.11$  9.41$
  Q  0.6645  4.8$  17.62$  8.26$
  Q  0.6645  3.34$  17.97$  8.65$
  Q  -1.3290  4.15$  18.15$  8.42$
  Q  0.6645  16.53$  9.91$  1.21$
  Q  0.6645  15.78$  9.7$  2.42$
  Q  -1.3290  16.43$  9.58$  1.94$
  Q  0.6645  7.24$  14.43$  17.11$
  Q  0.6645  8.13$  15.11$  16.14$
  Q  -1.3290  7.81$  14.98$  16.88$
  Q  0.6645  8.14$  17.79$  18.96$
  Q  0.6645  9.49$  17.83$  19.82$
  Q  -1.3290  8.7$  17.54$  19.57$
  Q  0.6645  10.25$  17.59$  1.45$
  Q  0.6645  10.36$  16.12$  1.28$
  Q  -1.3290  10.09$  16.84$  1.67$
  Q  0.6645  7.39$  16.11$  14.11$
  Q  0.6645  6.73$  16.64$  15.48$
  Q  -1.3290  7.17$  16.68$  14.74$
  Q  0.6645  17.15$  12.83$  3.73$
  Q  0.6645  17.09$  14.43$  3.63$
  Q  -1.3290  16.79$  13.62$  3.73$
  Q  0.6645  4.91$  7.14$  14.81$
  Q  0.6645  5.78$  5.89$  14.7$
  Q  -1.3290  5.07$  6.32$  14.82$
  Q  0.6645  1.38$  6.11$  12.25$
  Q  0.6645  0.4$  6.42$  11.02$
  Q  -1.3290  1.1$  6.12$  11.43$
  Q  0.6645  18.16$  12.25$  6.02$
  Q  0.6645  17.74$  13.12$  7.28$
  Q  -1.3290  18$  12.41$  6.87$
  Q  0.6645  6.07$  8.93$  1.69$
  Q  0.6645  5.45$  9.76$  0.53$
  Q  -1.3290  5.88$  9.66$  1.24$
  Q  0.6645  15.22$  15.73$  18.14$
  Q  0.6645  16.65$  15.13$  18.42$
  Q  -1.3290  16.1$  15.72$  18.17$
  Q  0.6645  4.36$  10.01$  13.84$
  Q  0.6645  3.16$  8.98$  13.76$
  Q  -1.3290  3.95$  9.27$  13.67$
  Q  0.6645  9.16$  0.97$  17.62$
  Q  0.6645  10.44$  0.26$  17.73$
  Q  -1.3290  9.98$  0.94$  17.72$
  Q  0.6645  3.17$  5.96$  14.14$
  Q  0.6645  1.86$  6.55$  14.29$
  Q  -1.3290  2.36$  5.94$  14.14$
  Q  0.6645  18.34$  18.74$  5.59$
  Q  0.6645  17.82$  17.36$  6.03$
  Q  -1.3290  18.32$  17.9$  5.62$
  Q  0.6645  12.82$  13.15$  3.99$
  Q  0.6645  11.68$  12.46$  4.58$
  Q  -1.3290  12.02$  13.02$  4.07$
  Q  0.6645  3.67$  19.18$  5.24$
  Q  0.6645  4.22$  18.71$  6.63$
  Q  -1.3290  4.23$  18.84$  5.77$
  Q  0.6645  16.34$  6.9$  6.52$
  Q  0.6645  17.11$  7.98$  7.51$
  Q  -1.3290  16.7$  7.23$  7.26$
  Q  0.6645  17.59$  12.13$  11.08$
  Q  0.6645  18.45$  12.83$  10.1$
  Q  -1.3290  17.97$  12.21$  10.36$
  Q  0.6645  10.25$  14.94$  18.26$
  Q  0.6645  10.72$  14.33$  16.84$
  Q  -1.3290  10.77$  14.85$  17.58$
  Q  0.6645  4.73$  12.08$  10.11$
  Q  0.6645  4.82$  13.56$  9.83$
  Q  -1.3290  4.92$  12.88$  10.33$
  Q  0.6645  3.95$  5.86$  16.7$
  Q  0.6645  3.72$  5.99$  18.13$
  Q  -1.3290  3.68$  6.23$  17.36$
  Q  0.6645  8.08$  8.56$  18.42$
  Q  0.6645  6.55$  8.87$  18.14$
  Q  -1.3290  7.38$  8.6$  17.97$
  Q  0.6645  3.31$  8.02$  10.87$
  Q  0.6645  3.65$  9.01$  11.8$
  Q  -1.3290  3.53$  8.76$  11.03$
  Q  0.6645  13.81$  16.01$  3.99$
  Q  0.6645  13.16$  16.87$  2.95$
  Q  -1.3290  13.72$  16.72$  3.55$
  Q  0.6645  17.44$  8.85$  17.07$
  Q  0.6645  16.63$  8.17$  15.86$
  Q  -1.3290  16.97$  8.24$  16.67$
  Q  0.6645  4.98$  2.19$  12.99$
  Q  0.6645  4.37$  3.41$  13.47$
  Q  -1.3290  4.78$  2.97$  12.92$
  Q  0.6645  5.3$  10.21$  5.62$
  Q  0.6645  6.18$  11.48$  5.72$
  Q  -1.3290  5.94$  10.72$  5.4$
  Q  0.6645  13.08$  5.02$  20.61$
  Q  0.6645  11.93$  5.11$  19.66$
  Q  -1.3290  12.51$  5.41$  20.16$
  Q  0.6645  8.44$  13.73$  20.85$
  Q  0.6645  8.65$  12.86$  22.1$
  Q  -1.3290  8.23$  13.06$  21.39$
  Q  0.6645  15.24$  6.45$  3.99$
  Q  0.6645  14.46$  7.22$  4.94$
  Q  -1.3290  15.15$  6.87$  4.69$
  Q  0.6645  7.83$  1.6$  13.74$
  Q  0.6645  8.53$  1.81$  12.28$
  Q  -1.3290  8.41$  1.88$  13.17$
  Q  0.6645  18.03$  6.45$  17.36$
  Q  0.6645  19$  5.26$  17.5$
  Q  -1.3290  18.77$  6.07$  17.53$
  Q  0.6645  4.66$  19.13$  14.71$
  Q  0.6645  4.92$  18.1$  13.63$
  Q  -1.3290  4.56$  18.79$  13.97$
  Q  0.6645  14.29$  19.33$  15.6$
  Q  0.6645  13.12$  18.6$  14.93$
  Q  -1.3290  13.8$  18.67$  15.42$
  Q  0.6645  4.52$  12.53$  4.18$
  Q  0.6645  5.62$  11.75$  3.75$
  Q  -1.3290  5.17$  12.41$  3.71$
  Q  0.6645  10.73$  3.16$  17.94$
  Q  0.6645  10.86$  4.67$  17.43$
  Q  -1.3290  10.93$  4.02$  18$
  Q  0.6645  7.26$  4.02$  19.82$
  Q  0.6645  6.05$  3.38$  19.36$
  Q  -1.3290  6.86$  3.38$  19.54$
  Q  0.6645  7.32$  12.38$  2.77$
  Q  0.6645  7.46$  11.17$  1.9$
  Q  -1.3290  7.71$  11.74$  2.46$
  Q  0.6645  15.37$  5.65$  10.51$
  Q  0.6645  14.9$  7.15$  10.53$
  Q  -1.3290  14.85$  6.31$  10.68$
  Q  0.6645  17.83$  18.35$  8.68$
  Q  0.6645  16.71$  18.38$  7.67$
  Q  -1.3290  17.23$  18.71$  8.25$
  Q  0.6645  11.3$  16.48$  11.91$
  Q  0.6645  11.64$  16.2$  10.42$
  Q  -1.3290  11.7$  16.59$  11.2$
  Q  0.6645  4.64$  12.26$  14.47$
  Q  0.6645  3.79$  11.58$  15.63$
  Q  -1.3290  4.46$  11.66$  15.07$
  Q  0.6645  17.23$  14.22$  15.86$
  Q  0.6645  18.45$  14.99$  15.01$
  Q  -1.3290  17.65$  14.85$  15.38$
  Q  0.6645  18.93$  9.24$  7.43$
  Q  0.6645  17.83$  10.45$  7.59$
  Q  -1.3290  18.18$  9.64$  7.62$
  Q  0.6645  18.23$  13.43$  19.68$
  Q  0.6645  18.54$  13.78$  18.19$
  Q  -1.3290  18.06$  13.48$  18.84$
  Q  0.6645  8.25$  21.25$  6.48$
  Q  0.6645  9.14$  20.31$  5.62$
  Q  -1.3290  8.87$  20.73$  6.32$
  Q  0.6645  16.31$  11.58$  16.16$
  Q  0.6645  15.46$  12.6$  16.95$
  Q  -1.3290  15.91$  12.31$  16.3$
  Q  0.6645  18.67$  10.93$  15.82$
  Q  0.6645  18.66$  10.5$  17.31$
  Q  -1.3290  18.32$  10.67$  16.56$
  Q  0.6645  7.24$  14.87$  11.31$
  Q  0.6645  6.5$  13.66$  11.16$
  Q  -1.3290  7.1$  14.1$  11.43$
  Q  0.6645  5.21$  13.18$  1.65$
  Q  0.6645  6.11$  13.5$  0.44$
  Q  -1.3290  5.36$  13.38$  0.86$
  Q  0.6645  2.07$  13.65$  12.85$
  Q  0.6645  0.62$  13.87$  12.89$
  Q  -1.3290  1.35$  13.9$  12.55$
  Q  0.6645  4.83$  16.52$  11.13$
  Q  0.6645  3.63$  16.8$  11.86$
  Q  -1.3290  4.4$  16.54$  11.81$
  Q  0.6645  13.84$  17.11$  11.08$
  Q  0.6645  14.99$  17.2$  12.12$
  Q  -1.3290  14.64$  17.21$  11.34$
  Q  0.6645  17.53$  5.15$  9.98$
  Q  0.6645  17.28$  3.79$  10.21$
  Q  -1.3290  17.08$  4.56$  10.3$
  Q  0.6645  2.06$  10.62$  17.23$
  Q  0.6645  2.46$  12.06$  17.48$
  Q  -1.3290  2.39$  11.35$  17$
  Q  0.6645  12.79$  4.66$  14.72$
  Q  0.6645  11.42$  4.25$  15.32$
  Q  -1.3290  12.26$  4.36$  15.31$
  Q  0.6645  17.05$  13.72$  13.41$
  Q  0.6645  17.98$  13.93$  12.31$
  Q  -1.3290  17.59$  13.47$  12.85$
  Q  0.6645  8.63$  0.74$  10.03$
  Q  0.6645  9.69$  0.06$  10.73$
  Q  -1.3290  9.22$  0.69$  10.61$
  Q  0.6645  14.59$  20.18$  6.74$
  Q  0.6645  15.58$  21.29$  7.37$
  Q  -1.3290  15.22$  20.81$  6.78$
  Q  0.6645  14.36$  11.74$  3.01$
  Q  0.6645  15.16$  12.92$  3.06$
  Q  -1.3290  14.5$  12.49$  2.82$
  Q  0.6645  18.88$  11.65$  3.37$
  Q  0.6645  17.68$  10.76$  3.64$
  Q  -1.3290  18.29$  11.3$  3.84$
  Q  0.6645  8.2$  15.71$  7.44$
  Q  0.6645  8.93$  15.12$  8.64$
  Q  -1.3290  8.27$  15.23$  8.12$
  Q  0.6645  9.25$  4.81$  15.06$
  Q  0.6645  9.19$  3.49$  14.17$
  Q  -1.3290  9.55$  4.12$  14.62$
  Q  0.6645  6.33$  5.03$  4.52$
  Q  0.6645  6.39$  6.36$  3.76$
  Q  -1.3290  6.12$  5.83$  4.37$
  Q  0.6645  18.49$  9.09$  9.47$
  Q  0.6645  19.11$  7.76$  9.88$
  Q  -1.3290  18.93$  8.58$  9.99$
  Q  0.6645  10.49$  2.29$  10.8$
  Q  0.6645  10.77$  3.73$  11.07$
  Q  -1.3290  10.98$  2.92$  10.93$
  Q  0.6645  7.85$  16.96$  5.53$
  Q  0.6645  9.24$  16.33$  5.63$
  Q  -1.3290  8.61$  16.79$  5.9$
  Q  0.6645  13.49$  5.05$  9.82$
  Q  0.6645  12.43$  3.94$  9.87$
  Q  -1.3290  13$  4.44$  9.48$
  Q  0.6645  8.61$  21.14$  14.6$
  Q  0.6645  9.61$  22.27$  14.26$
  Q  -1.3290  9.35$  21.5$  14.6$
  Q  0.6645  4.43$  10.28$  17.76$
  Q  0.6645  4.76$  9.81$  19.11$
  Q  -1.3290  4.95$  9.99$  18.31$
  Q  0.6645  14.19$  14.84$  13.31$
  Q  0.6645  12.72$  14.83$  12.9$
  Q  -1.3290  13.49$  14.51$  12.98$
  Q  0.6645  7.32$  9.05$  5.35$
  Q  0.6645  6.66$  7.63$  5.16$
  Q  -1.3290  7.26$  8.2$  5.39$
  Q  0.6645  2.94$  6.71$  6.81$
  Q  0.6645  3.61$  7.28$  8.04$
  Q  -1.3290  3.03$  7.25$  7.46$
  Q  0.6645  11.07$  18.34$  16.34$
  Q  0.6645  11.17$  16.92$  16.38$
  Q  -1.3290  11.21$  17.63$  15.98$
  Q  0.6645  8.27$  19.56$  11.53$
  Q  0.6645  8.67$  19.2$  10.04$
  Q  -1.3290  8.17$  19.52$  10.67$
  Q  0.6645  11.14$  14.11$  0.73$
  Q  0.6645  12.32$  14.95$  0.12$
  Q  -1.3290  11.51$  14.8$  0.36$
  Q  0.6645  15.52$  19.3$  8.78$
  Q  0.6645  14.67$  19.17$  9.96$
  Q  -1.3290  14.79$  19.21$  9.15$
  Q  0.6645  9.15$  19.56$  7.68$
  Q  0.6645  9.62$  18.18$  7.94$
  Q  -1.3290  9.38$  18.92$  8.17$
  Q  0.6645  18.99$  8.09$  13.34$
  Q  0.6645  18.6$  8.69$  11.94$
  Q  -1.3290  18.59$  8.61$  12.81$
  Q  0.6645  6.29$  6.42$  1.8$
  Q  0.6645  7.62$  7.09$  1.55$
  Q  -1.3290  6.94$  6.94$  1.98$
  Q  0.6645  17.61$  15.3$  7.8$
  Q  0.6645  16.04$  15.17$  7.48$
  Q  -1.3290  16.82$  14.93$  7.65$
  Q  0.6645  13.87$  5.26$  5.87$
  Q  0.6645  13.62$  5.05$  7.41$
  Q  -1.3290  13.41$  5.1$  6.56$
  Q  0.6645  7.67$  3.02$  17.9$
  Q  0.6645  8.23$  3.27$  16.45$
  Q  -1.3290  7.83$  2.84$  17.06$
  Q  0.6645  8.35$  5.62$  20.89$
  Q  0.6645  8.08$  6.6$  19.92$
  Q  -1.3290  7.83$  6$  20.39$
*
