! NoMOPrint PrintBasis #MINIPRINT SMALLPRINT LARGEPRINT
! ALLPOP XYZFILE
#! BP86 3-21G   TightSCF
! ENGRAD
! B3LYP NormalPNO PModel #DecontractAux
#! VerySlowConv 
 %maxcore 5000
 %scf  maxiter   500  end 

%pal
    nprocs 32
end

%basis
    NewGTO O    # New basis for oxygen
        "aug-cc-pVTZ"
    end
    NewGTO C    # New basis for carbon
        "aug-cc-pVTZ"
    end
    NewGTO H    # New basis for hydrogen
        "cc-pVTZ"
    end
end

* xyz 0   1
  C  12.14  9.71  9.79  #1
  H  12.32  10.34  8.88  #2
  H  11.57  8.89  9.43  #3
  C  11.41  10.56  10.68  #4
  H  11.27  10.06  11.69  #5
  H  12.05  11.37  10.92  #6
  C  10.08  11.15  10.2  #7
  H  9.3  10.43  10.27  #8
  H  10.21  11.35  9.09  #9
  C  9.5  12.33  10.99  #10
  H  8.45  12.32  10.65  #11
  H  10.01  13.32  10.8  #12
  O  9.4  12.11  12.41  #13
  H  10.06  12.67  12.91  #14
  O  13.34  9.2  10.52  #15
  H  13.09  8.46  11.1  #16
  O  14.82  10.34  12.46  #17
  H  14.19  10.07  11.73  #18
  H  14.32  11.06  12.88  #19
  O  8.74  9.99  14.47  #20
  H  9.28  10.51  13.87  #21
  H  8.45  9.1  14.07  #22
  O  15.58  9.57  8.91  #23
  H  16.3  10.17  9.13  #24
  H  14.94  9.43  9.64  #25
  O  11.83  7.82  6.67  #26
  H  12.68  8.29  6.83  #27
  H  12.12  7.03  6.22  #28
  O  10.02  13.72  7.27  #29
  H  9.38  13.03  7.43  #30
  H  10.37  13.42  6.41  #31
  O  11.37  13.83  13.39  #32
  H  11.71  14.04  12.5  #33
  H  11.8  12.94  13.47  #34
  O  11.07  5.42  4.79  #35
  H  10.15  5.35  4.65  #36
  H  11.51  4.91  4.07  #37
  O  9.15  8.51  7.65  #38
  H  8.61  8.39  6.89  #39
  H  9.96  8.15  7.3  #40
  O  7.72  15.24  10.89  #41
  H  7.7  16.18  10.69  #42
  H  8.24  15.28  11.73  #43
  O  13.06  7  12.59  #44
  H  12.52  6.56  11.93  #45
  H  13.82  6.4  12.8  #46
  O  16.33  7.23  7.34  #47
  H  17.06  6.73  7.68  #48
  H  16.15  8.06  7.9  #49
  O  8.28  15.56  7.97  #50
  H  9.14  15.14  7.78  #51
  H  7.93  15.29  8.87  #52
  O  11.05  13.09  4.93  #53
  H  11.98  12.74  4.91  #54
  H  11.18  14.04  4.6  #55
  O  11.8  4.55  7.54  #56
  H  12.75  4.48  7.81  #57
  H  11.63  4.62  6.57  #58
  O  8.2  11.67  7.65  #59
  H  8.23  10.68  7.74  #60
  H  7.79  11.91  6.78  #61
  O  11.59  8.97  3.97  #62
  H  11.16  9.86  3.82  #63
  H  11.6  8.75  4.89  #64
  O  6.98  12.16  14.06  #65
  H  7.54  12.11  13.25  #66
  H  6.88  11.21  14.23  #67
  O  13.3  11.57  14.53  #68
  H  14.01  11.92  15.08  #69
  H  13.12  10.64  14.78  #70
  O  16.38  8.74  13.78  #71
  H  17.12  8.48  13.24  #72
  H  15.69  9.22  13.33  #73
  O  8.91  15.68  13.27  #74
  H  9.27  15.13  13.92  #75
  H  8.04  16.12  13.57  #76
  O  12.93  14.19  11.18  #77
  H  13.79  13.7  11.11  #78
  H  12.75  14.3  10.23  #79
  O  12.39  14.98  8.51  #80
  H  13.23  15.13  8.03  #81
  H  11.79  14.62  7.93  #82
  O  8.25  7.58  13.16  #83
  H  7.58  7.23  13.79  #84
  H  8.77  6.84  12.93  #85
  O  13.54  9.89  6.92  #86
  H  14.46  9.94  7.25  #87
  H  13.64  9.88  5.97  #88
  O  17.13  12.26  8.17  #89
  H  17.61  11.74  7.5  #90
  H  17.61  11.9  8.89  #91
  O  10.2  8.74  16.57  #92
  H  11.03  8.66  16.12  #93
  H  9.6  9.22  15.99  #94
  Q  0.6645  12.73$  1$  8.03$
  Q  0.6645  13.81$  0.59$  7.05$
  Q  -1.3290  13.53$  0.89$  7.78$
  Q  0.6645  8.98$  7.18$  17.08$
  Q  0.6645  8.59$  6.11$  18.06$
  Q  -1.3290  8.63$  6.46$  17.28$
  Q  0.6645  15.61$  3.11$  8.31$
  Q  0.6645  15.06$  1.86$  7.9$
  Q  -1.3290  15.63$  2.43$  7.89$
  Q  0.6645  6.24$  2$  7.16$
  Q  0.6645  5.48$  2.51$  5.96$
  Q  -1.3290  5.88$  2.6$  6.72$
  Q  0.6645  14.82$  0.55$  12.71$
  Q  0.6645  15.21$  1.9$  12.64$
  Q  -1.3290  14.64$  1.34$  12.77$
  Q  0.6645  5.11$  14.81$  4.26$
  Q  0.6645  3.62$  14.51$  4.39$
  Q  -1.3290  4.34$  14.72$  3.97$
  Q  0.6645  17.35$  9.32$  15.23$
  Q  0.6645  18.62$  9.79$  15.74$
  Q  -1.3290  17.87$  9.5$  15.84$
  Q  0.6645  6.06$  7.34$  10.65$
  Q  0.6645  7.07$  8.17$  11.17$
  Q  -1.3290  6.74$  7.75$  10.53$
  Q  0.6645  16.83$  5.48$  12.15$
  Q  0.6645  18.23$  5.06$  11.66$
  Q  -1.3290  17.38$  5.07$  11.62$
  Q  0.6645  18.99$  5.06$  8.37$
  Q  0.6645  17.91$  5.32$  9.48$
  Q  -1.3290  18.39$  5.54$  8.81$
  Q  0.6645  5.52$  11.49$  9.46$
  Q  0.6645  6.27$  12.29$  8.42$
  Q  -1.3290  5.59$  12.07$  8.89$
  Q  0.6645  18.33$  9.44$  6.13$
  Q  0.6645  17.54$  8.08$  6.39$
  Q  -1.3290  18.12$  8.59$  6.01$
  Q  0.6645  12.19$  6.78$  20.24$
  Q  0.6645  12.27$  5.26$  20.08$
  Q  -1.3290  12.1$  6.06$  19.82$
  Q  0.6645  3.98$  15.22$  8.04$
  Q  0.6645  2.62$  15.86$  7.93$
  Q  -1.3290  3.17$  15.25$  7.83$
  Q  0.6645  8.29$  18.3$  16.71$
  Q  0.6645  6.93$  18.27$  17.32$
  Q  -1.3290  7.47$  18.26$  16.67$
  Q  0.6645  6.8$  16.14$  20.95$
  Q  0.6645  7.74$  14.92$  21.01$
  Q  -1.3290  7.52$  15.7$  20.8$
  Q  0.6645  14.54$  3.73$  15.86$
  Q  0.6645  14.39$  5.22$  16.29$
  Q  -1.3290  14.55$  4.6$  15.78$
  Q  0.6645  10.77$  18.47$  14.03$
  Q  0.6645  12.23$  18.69$  13.6$
  Q  -1.3290  11.59$  18.5$  14.13$
  Q  0.6645  18.95$  13.88$  10.41$
  Q  0.6645  20.17$  14.85$  10.32$
  Q  -1.3290  19.56$  14.39$  10.71$
  Q  0.6645  16.14$  10.72$  2.1$
  Q  0.6645  15.59$  9.69$  1$
  Q  -1.3290  15.87$  9.95$  1.78$
  Q  0.6645  6.09$  11.15$  2.71$
  Q  0.6645  5.43$  11.51$  3.98$
  Q  -1.3290  5.44$  11.39$  3.16$
  Q  0.6645  12.07$  18.72$  19$
  Q  0.6645  11.14$  17.5$  18.3$
  Q  -1.3290  11.52$  17.99$  18.92$
  Q  0.6645  15.43$  5.47$  14.18$
  Q  0.6645  15.85$  6.98$  13.89$
  Q  -1.3290  15.7$  6.14$  13.7$
  Q  0.6645  6.7$  8.54$  8.62$
  Q  0.6645  5.25$  8.93$  8.13$
  Q  -1.3290  6.11$  8.91$  8.12$
  Q  0.6645  17.34$  12.67$  3.41$
  Q  0.6645  18.74$  13.33$  3.73$
  Q  -1.3290  18.11$  12.77$  3.85$
  Q  0.6645  18.4$  3.97$  3.8$
  Q  0.6645  18.49$  5.42$  4.27$
  Q  -1.3290  18.08$  4.72$  4.04$
  Q  0.6645  7.64$  3.07$  5.31$
  Q  0.6645  8.49$  2.32$  4.29$
  Q  -1.3290  8.26$  2.57$  5.06$
  Q  0.6645  6$  4.72$  3.23$
  Q  0.6645  7.18$  3.79$  3.35$
  Q  -1.3290  6.69$  4.44$  3.56$
  Q  0.6645  14.59$  3.39$  4.05$
  Q  0.6645  14.33$  2.84$  2.54$
  Q  -1.3290  14.44$  2.83$  3.42$
  Q  0.6645  17.05$  19.8$  8.54$
  Q  0.6645  15.79$  19.92$  9.33$
  Q  -1.3290  16.53$  19.58$  9.15$
  Q  0.6645  9.7$  17.03$  12.4$
  Q  0.6645  9.43$  18.49$  12.25$
  Q  -1.3290  9.62$  17.73$  11.94$
  Q  0.6645  16.67$  17.92$  6.78$
  Q  0.6645  15.95$  18.45$  5.52$
  Q  -1.3290  16.31$  17.85$  6$
  Q  0.6645  15.66$  17.51$  15.2$
  Q  0.6645  14.59$  16.98$  14.32$
  Q  -1.3290  15.02$  17.01$  15.04$
  Q  0.6645  10.97$  11.03$  18.26$
  Q  0.6645  10.68$  9.64$  18$
  Q  -1.3290  11$  10.25$  18.43$
  Q  0.6645  10.71$  11.58$  2.47$
  Q  0.6645  10.32$  11.92$  3.83$
  Q  -1.3290  10.21$  11.5$  3.12$
  Q  0.6645  9.21$  8.09$  20.18$
  Q  0.6645  9.85$  9.39$  19.7$
  Q  -1.3290  9.31$  8.93$  20.14$
  Q  0.6645  7.81$  4.25$  9.34$
  Q  0.6645  6.6$  3.3$  9.5$
  Q  -1.3290  7.39$  3.58$  9.68$
  Q  0.6645  21.74$  7.8$  13.4$
  Q  0.6645  21.69$  8.77$  12.16$
  Q  -1.3290  21.57$  8.53$  12.98$
  Q  0.6645  18.73$  11.69$  5.66$
  Q  0.6645  19.34$  11.22$  7.1$
  Q  -1.3290  18.8$  11.21$  6.41$
  Q  0.6645  17.18$  14.59$  1.83$
  Q  0.6645  16.89$  15.37$  3.13$
  Q  -1.3290  16.91$  15.27$  2.28$
  Q  0.6645  6.7$  11.97$  21.54$
  Q  0.6645  6.33$  12.94$  20.29$
  Q  -1.3290  6.68$  12.73$  21.1$
  Q  0.6645  17.17$  7.5$  16.07$
  Q  0.6645  17.41$  6$  15.63$
  Q  -1.3290  17.17$  6.64$  16.14$
  Q  0.6645  12.72$  1.82$  15.85$
  Q  0.6645  13.89$  1.16$  15.31$
  Q  -1.3290  13.51$  1.68$  15.8$
  Q  0.6645  2.11$  18.1$  8.8$
  Q  0.6645  2.86$  18$  7.59$
  Q  -1.3290  2.22$  17.8$  8.02$
  Q  0.6645  8.21$  11.82$  17.7$
  Q  0.6645  8.26$  10.8$  18.75$
  Q  -1.3290  7.93$  11.16$  18.1$
  Q  0.6645  17.41$  3.37$  12.55$
  Q  0.6645  17.48$  2.97$  14.04$
  Q  -1.3290  17.32$  2.84$  13.24$
  Q  0.6645  17.05$  10.73$  17.05$
  Q  0.6645  15.67$  10.69$  17.8$
  Q  -1.3290  16.4$  11.05$  17.52$
  Q  0.6645  17.82$  14.85$  14.31$
  Q  0.6645  16.45$  15.5$  14.35$
  Q  -1.3290  16.96$  14.9$  14.19$
  Q  0.6645  11.64$  2.36$  11.57$
  Q  0.6645  12.95$  2.5$  12.35$
  Q  -1.3290  12.3$  2.79$  11.91$
  Q  0.6645  7.01$  20.08$  15.97$
  Q  0.6645  5.73$  20.83$  16.01$
  Q  -1.3290  6.52$  20.78$  15.85$
  Q  0.6645  13.95$  13.98$  16.67$
  Q  0.6645  12.81$  15.13$  16.64$
  Q  -1.3290  13.31$  14.48$  16.98$
  Q  0.6645  12.08$  20.09$  7.51$
  Q  0.6645  12.04$  19.38$  8.89$
  Q  -1.3290  12.4$  19.82$  8.25$
  Q  0.6645  15.69$  13.32$  8.75$
  Q  0.6645  15.69$  14$  10.04$
  Q  -1.3290  15.59$  13.99$  9.26$
  Q  0.6645  6.43$  17.42$  14.97$
  Q  0.6645  5.89$  17.28$  13.49$
  Q  -1.3290  6.26$  17.05$  14.22$
  Q  0.6645  5.96$  9.6$  10.54$
  Q  0.6645  5.47$  10.08$  11.89$
  Q  -1.3290  5.86$  10.2$  11.16$
  Q  0.6645  2.85$  14.31$  9.76$
  Q  0.6645  1.82$  13.27$  9.42$
  Q  -1.3290  2.09$  13.95$  9.8$
  Q  0.6645  6.47$  12.7$  18.32$
  Q  0.6645  5.06$  12.37$  18.88$
  Q  -1.3290  5.73$  12.86$  18.69$
  Q  0.6645  9.14$  16.4$  17.17$
  Q  0.6645  10.44$  16.39$  16.21$
  Q  -1.3290  9.85$  16.72$  16.76$
  Q  0.6645  0.66$  7.43$  7.86$
  Q  0.6645  1.8$  8.53$  7.73$
  Q  -1.3290  0.98$  8.2$  7.74$
  Q  0.6645  7.77$  0.42$  8.89$
  Q  0.6645  8.24$  1.81$  9.27$
  Q  -1.3290  8.25$  0.97$  9.3$
  Q  0.6645  6.63$  10.22$  16.57$
  Q  0.6645  5.11$  10.27$  16.07$
  Q  -1.3290  5.91$  9.94$  16.19$
  Q  0.6645  10.83$  4.34$  15.8$
  Q  0.6645  9.94$  4.96$  16.88$
  Q  -1.3290  10.39$  4.36$  16.54$
  Q  0.6645  14.48$  17.47$  11.94$
  Q  0.6645  14.17$  16.06$  12.11$
  Q  -1.3290  14.6$  16.72$  12.26$
  Q  0.6645  0.87$  11.43$  12.89$
  Q  0.6645  1.07$  12.45$  14.05$
  Q  -1.3290  0.65$  11.95$  13.5$
  Q  0.6645  11.66$  19.62$  15.95$
  Q  0.6645  11.67$  21.08$  15.81$
  Q  -1.3290  11.8$  20.38$  16.22$
  Q  0.6645  14.47$  17.58$  16.74$
  Q  0.6645  13.66$  17.87$  18.13$
  Q  -1.3290  14.3$  17.9$  17.55$
  Q  0.6645  4.18$  12.11$  7.68$
  Q  0.6645  3.18$  12.75$  6.71$
  Q  -1.3290  3.77$  12.21$  6.94$
  Q  0.6645  5.5$  5.67$  14.23$
  Q  0.6645  4.63$  4.61$  13.67$
  Q  -1.3290  5.22$  5.18$  13.61$
  Q  0.6645  13.25$  20.98$  9.69$
  Q  0.6645  13.6$  22.35$  10.26$
  Q  -1.3290  13.39$  21.54$  10.3$
  Q  0.6645  13.66$  17.74$  4.29$
  Q  0.6645  13.3$  16.83$  5.41$
  Q  -1.3290  13.15$  17.47$  4.93$
  Q  0.6645  18.35$  0.81$  9.38$
  Q  0.6645  17.31$  1.48$  8.36$
  Q  -1.3290  17.84$  0.87$  8.66$
  Q  0.6645  15.78$  13.65$  15.4$
  Q  0.6645  15.82$  12.4$  16.31$
  Q  -1.3290  15.46$  12.97$  15.78$
  Q  0.6645  20.77$  10.68$  14.77$
  Q  0.6645  20.6$  10.98$  16.25$
  Q  -1.3290  20.42$  10.56$  15.53$
  Q  0.6645  4.37$  16.08$  14.83$
  Q  0.6645  3.08$  16.58$  15.69$
  Q  -1.3290  3.72$  16$  15.39$
  Q  0.6645  19.82$  8.6$  12.67$
  Q  0.6645  18.61$  9.58$  12.29$
  Q  -1.3290  19$  8.84$  12.48$
  Q  0.6645  4.37$  18.64$  12.3$
  Q  0.6645  4.24$  17.29$  11.72$
  Q  -1.3290  4.68$  17.9$  12.05$
  Q  0.6645  11.84$  4.18$  2.21$
  Q  0.6645  11.73$  2.73$  2.83$
  Q  -1.3290  11.46$  3.51$  2.59$
  Q  0.6645  15.08$  5.78$  7.99$
  Q  0.6645  14.27$  5.05$  9.12$
  Q  -1.3290  14.68$  5.13$  8.38$
  Q  0.6645  18.34$  11.52$  11.28$
  Q  0.6645  19.64$  11.38$  10.19$
  Q  -1.3290  18.8$  11.4$  10.48$
  Q  0.6645  16.42$  13.26$  6.66$
  Q  0.6645  16.62$  14.01$  5.31$
  Q  -1.3290  16.22$  13.59$  5.92$
  Q  0.6645  3.74$  6.44$  10.75$
  Q  0.6645  4.67$  6.1$  11.96$
  Q  -1.3290  4.48$  6.43$  11.2$
  Q  0.6645  2.27$  14.56$  6.1$
  Q  0.6645  1.68$  14.18$  4.67$
  Q  -1.3290  2.1$  14.01$  5.42$
  Q  0.6645  10.04$  1.31$  15.22$
  Q  0.6645  10.72$  1.42$  16.59$
  Q  -1.3290  10.72$  1.29$  15.75$
  Q  0.6645  10.91$  8.01$  2.81$
  Q  0.6645  10.97$  8.15$  1.28$
  Q  -1.3290  10.78$  7.75$  2.01$
  Q  0.6645  16.55$  16.81$  12$
  Q  0.6645  17.6$  16.38$  10.88$
  Q  -1.3290  17.3$  16.8$  11.56$
  Q  0.6645  7.07$  14.15$  1.47$
  Q  0.6645  8.58$  14.68$  1.52$
  Q  -1.3290  7.78$  14.48$  1.84$
  Q  0.6645  15.04$  20.51$  13.8$
  Q  0.6645  14.63$  19.93$  12.36$
  Q  -1.3290  15.07$  20.41$  12.94$
  Q  0.6645  10.16$  0.4$  10.46$
  Q  0.6645  11.59$  0.07$  10.94$
  Q  -1.3290  10.78$  0.32$  11.02$
  Q  0.6645  21.31$  15.57$  14.22$
  Q  0.6645  22.6$  14.96$  14.49$
  Q  -1.3290  21.82$  15.12$  14.67$
  Q  0.6645  16.35$  12.58$  12.12$
  Q  0.6645  16.23$  14.03$  12.57$
  Q  -1.3290  16.13$  13.37$  12.06$
  Q  0.6645  2.48$  13.81$  15.89$
  Q  0.6645  1.21$  12.91$  16.04$
  Q  -1.3290  1.93$  13.22$  15.68$
  Q  0.6645  5.65$  12.49$  5.94$
  Q  0.6645  6.7$  13.14$  4.96$
  Q  -1.3290  6.34$  12.51$  5.44$
  Q  0.6645  4.55$  13.48$  12.05$
  Q  0.6645  5.25$  12.82$  13.27$
  Q  -1.3290  4.61$  13.03$  12.8$
  Q  0.6645  12.69$  4.57$  14.48$
  Q  0.6645  11.65$  3.79$  13.63$
  Q  -1.3290  11.96$  4.26$  14.26$
  Q  0.6645  0.28$  16.69$  10.5$
  Q  0.6645  0.69$  15.36$  9.9$
  Q  -1.3290  0.14$  15.96$  10.13$
  Q  0.6645  8.7$  12.98$  20.51$
  Q  0.6645  9.96$  13.29$  19.62$
  Q  -1.3290  9.27$  13.45$  20.1$
  Q  0.6645  3.7$  5.68$  7.33$
  Q  0.6645  3.17$  6.03$  5.88$
  Q  -1.3290  3.14$  5.69$  6.67$
  Q  0.6645  11.82$  13.32$  2.74$
  Q  0.6645  11.03$  13.78$  1.54$
  Q  -1.3290  11.6$  13.31$  1.94$
  Q  0.6645  3.94$  10$  4.39$
  Q  0.6645  2.45$  10.07$  4.55$
  Q  -1.3290  3.21$  9.71$  4.62$
  Q  0.6645  8.16$  18.24$  6.4$
  Q  0.6645  7.66$  16.83$  6.95$
  Q  -1.3290  7.63$  17.57$  6.5$
  Q  0.6645  12.68$  7.84$  14.28$
  Q  0.6645  13.22$  7.89$  15.77$
  Q  -1.3290  12.7$  8.12$  15.1$
  Q  0.6645  14.46$  12.9$  5.04$
  Q  0.6645  13.8$  11.63$  4.35$
  Q  -1.3290  13.84$  12.44$  4.58$
  Q  0.6645  19.54$  13.77$  12.56$
  Q  0.6645  20.39$  13.53$  13.83$
  Q  -1.3290  19.67$  13.55$  13.39$
  Q  0.6645  2.79$  11.68$  15.47$
  Q  0.6645  2.61$  10.26$  15.61$
  Q  -1.3290  3.06$  10.94$  15.61$
  Q  0.6645  12.08$  19.12$  5.38$
  Q  0.6645  12.06$  20.59$  5.2$
  Q  -1.3290  11.78$  19.9$  5.56$
  Q  0.6645  5.44$  4.36$  7.5$
  Q  0.6645  6.3$  5.56$  8$
  Q  -1.3290  5.61$  5.09$  7.92$
  Q  0.6645  10.51$  15.89$  0.91$
  Q  0.6645  9.81$  15.04$  -0.24$
  Q  -1.3290  10.03$  15.29$  0.56$
  Q  0.6645  17.46$  1.35$  4.95$
  Q  0.6645  16.95$  2.04$  6.35$
  Q  -1.3290  17.5$  1.67$  5.77$
  Q  0.6645  8.49$  5.14$  7.05$
  Q  0.6645  8.77$  6.2$  8.24$
  Q  -1.3290  8.4$  5.55$  7.84$
  Q  0.6645  14.61$  9.78$  3.21$
  Q  0.6645  13.22$  9.5$  3.88$
  Q  -1.3290  13.99$  9.87$  3.82$
  Q  0.6645  4.47$  8.33$  18.91$
  Q  0.6645  5.23$  8.54$  17.58$
  Q  -1.3290  4.72$  8.14$  18.13$
  Q  0.6645  1.6$  5.37$  11.37$
  Q  0.6645  1.7$  6.8$  10.94$
  Q  -1.3290  1.76$  5.95$  10.82$
  Q  0.6645  8.62$  21.8$  13.18$
  Q  0.6645  10.19$  21.72$  13.17$
  Q  -1.3290  9.41$  21.65$  13.5$
  Q  0.6645  9.23$  3.4$  15.43$
  Q  0.6645  8.69$  3.28$  13.98$
  Q  -1.3290  8.82$  3.01$  14.79$
  Q  0.6645  12.14$  16.51$  14.95$
  Q  0.6645  12.22$  14.94$  14.66$
  Q  -1.3290  12.12$  15.66$  15.15$
  Q  0.6645  8.09$  17.45$  4.49$
  Q  0.6645  7.66$  17.44$  3.06$
  Q  -1.3290  8.23$  17.37$  3.67$
  Q  0.6645  5.87$  14.7$  10.63$
  Q  0.6645  5.24$  13.33$  10.14$
  Q  -1.3290  5.23$  14.14$  10.44$
  Q  0.6645  20.9$  12.7$  10.55$
  Q  0.6645  21.44$  12.1$  11.89$
  Q  -1.3290  21.25$  12.11$  11.05$
  Q  0.6645  8.09$  6.9$  5.33$
  Q  0.6645  7.64$  5.57$  4.79$
  Q  -1.3290  8.2$  6.12$  5.08$
  Q  0.6645  12.51$  18.3$  11.21$
  Q  0.6645  12.99$  19.77$  11.4$
  Q  -1.3290  12.93$  18.93$  11.58$
  Q  0.6645  2.82$  14.34$  12.75$
  Q  0.6645  1.76$  14.74$  11.79$
  Q  -1.3290  2.13$  14.73$  12.55$
  Q  0.6645  8.53$  20.63$  6.22$
  Q  0.6645  9.89$  19.98$  5.82$
  Q  -1.3290  9.02$  20.04$  5.89$
  Q  0.6645  9.68$  19.3$  18.55$
  Q  0.6645  10.29$  20.06$  17.5$
  Q  -1.3290  9.66$  19.84$  17.93$
  Q  0.6645  21.48$  10.09$  7.91$
  Q  0.6645  20.87$  9.37$  8.85$
  Q  -1.3290  20.93$  10.03$  8.49$
  Q  0.6645  18.65$  15.56$  4.69$
  Q  0.6645  17.25$  16.22$  5.27$
  Q  -1.3290  17.8$  15.65$  4.84$
  Q  0.6645  14.81$  12.53$  2.71$
  Q  0.6645  15.47$  12.71$  1.36$
  Q  -1.3290  15.44$  12.48$  2.17$
  Q  0.6645  5.4$  14.95$  18.6$
  Q  0.6645  4.91$  15.7$  17.26$
  Q  -1.3290  5.21$  15.6$  18.08$
  Q  0.6645  8.99$  7.14$  2.1$
  Q  0.6645  8.09$  6.74$  3.11$
  Q  -1.3290  8.25$  6.9$  2.34$
  Q  0.6645  14.77$  15.82$  19.89$
  Q  0.6645  14.61$  14.9$  18.61$
  Q  -1.3290  14.96$  15.21$  19.33$
  Q  0.6645  11.63$  3.61$  17.79$
  Q  0.6645  11.04$  3.11$  19.04$
  Q  -1.3290  11.67$  3.2$  18.52$
  Q  0.6645  3.1$  10.04$  8.72$
  Q  0.6645  3.49$  9.98$  7.24$
  Q  -1.3290  3.37$  9.64$  8.02$
  Q  0.6645  10.59$  17.65$  10.25$
  Q  0.6645  11.65$  16.72$  9.58$
  Q  -1.3290  11.34$  17.47$  9.85$
  Q  0.6645  7.48$  15.75$  5.08$
  Q  0.6645  7.56$  14.94$  3.92$
  Q  -1.3290  7.27$  15.1$  4.66$
  Q  0.6645  4.19$  8.72$  13.74$
  Q  0.6645  4.49$  10.19$  14.21$
  Q  -1.3290  4.6$  9.48$  13.74$
  Q  0.6645  11.33$  2.69$  8.21$
  Q  0.6645  10.24$  1.6$  8.39$
  Q  -1.3290  10.99$  1.98$  8.53$
  Q  0.6645  13.08$  10.2$  18.66$
  Q  0.6645  13.91$  9.07$  18.49$
  Q  -1.3290  13.83$  9.86$  18.58$
  Q  0.6645  18.56$  3.36$  16.08$
  Q  0.6645  19.23$  4.25$  15.03$
  Q  -1.3290  18.6$  3.96$  15.48$
  Q  0.6645  20.39$  5.66$  10.84$
  Q  0.6645  20.72$  5.6$  12.29$
  Q  -1.3290  20.35$  5.33$  11.59$
  Q  0.6645  15.38$  5.48$  4.47$
  Q  0.6645  14.9$  6.85$  4.34$
  Q  -1.3290  15.01$  6.11$  4.08$
  Q  0.6645  13.05$  14.69$  1.11$
  Q  0.6645  14.38$  15$  0.42$
  Q  -1.3290  13.74$  15.17$  0.94$
  Q  0.6645  16.71$  15.82$  9$
  Q  0.6645  16.68$  17.41$  9.15$
  Q  -1.3290  16.96$  16.63$  8.88$
  Q  0.6645  12.61$  4.48$  10.55$
  Q  0.6645  11.95$  5.19$  9.52$
  Q  -1.3290  12.48$  5.15$  10.13$
  Q  0.6645  21.16$  12.88$  7.57$
  Q  0.6645  20.11$  13.86$  7.52$
  Q  -1.3290  20.65$  13.42$  7.9$
  Q  0.6645  16.8$  6.42$  18.13$
  Q  0.6645  17.34$  6.69$  19.53$
  Q  -1.3290  16.82$  6.33$  18.98$
  Q  0.6645  19.55$  7.21$  9.34$
  Q  0.6645  19.66$  8.21$  10.53$
  Q  -1.3290  19.94$  7.67$  9.93$
  Q  0.6645  11.4$  16.64$  4.29$
  Q  0.6645  10.1$  16.13$  3.76$
  Q  -1.3290  10.92$  16.09$  3.88$
  Q  0.6645  9.01$  19.89$  13.99$
  Q  0.6645  8.18$  18.58$  14.36$
  Q  -1.3290  8.83$  19.03$  14.05$
  Q  0.6645  1.19$  8.71$  9.85$
  Q  0.6645  1.74$  9.64$  11.09$
  Q  -1.3290  1.42$  8.93$  10.66$
  Q  0.6645  18.55$  11.78$  13.42$
  Q  0.6645  17.38$  11.06$  13.83$
  Q  -1.3290  17.87$  11.34$  13.26$
  Q  0.6645  14.87$  16.19$  6.47$
  Q  0.6645  14.72$  14.73$  6.01$
  Q  -1.3290  14.44$  15.51$  6.24$
  Q  0.6645  6.46$  3.99$  12.99$
  Q  0.6645  7.27$  3.79$  11.7$
  Q  -1.3290  6.95$  3.58$  12.45$
  Q  0.6645  12.21$  6.27$  1.63$
  Q  0.6645  13.46$  5.81$  2.56$
  Q  -1.3290  12.89$  5.77$  1.91$
  Q  0.6645  10.44$  1.52$  4.88$
  Q  0.6645  11.65$  0.74$  4.38$
  Q  -1.3290  10.84$  0.93$  4.43$
  Q  0.6645  3.54$  3.39$  9.81$
  Q  0.6645  4.68$  4.34$  10.3$
  Q  -1.3290  4.26$  3.6$  10.2$
  Q  0.6645  10.72$  5.2$  12.97$
  Q  0.6645  9.93$  5.1$  11.65$
  Q  -1.3290  10.08$  5.36$  12.43$
  Q  0.6645  6.71$  8.72$  6.17$
  Q  0.6645  7.49$  9.1$  4.76$
  Q  -1.3290  7.3$  8.68$  5.52$
  Q  0.6645  13.33$  7.02$  18.13$
  Q  0.6645  14.87$  6.94$  18.28$
  Q  -1.3290  14.13$  7.21$  17.93$
  Q  0.6645  7.37$  9$  2.59$
  Q  0.6645  8.2$  10.17$  3.02$
  Q  -1.3290  7.57$  9.64$  3.07$
  Q  0.6645  3.06$  7.67$  4.71$
  Q  0.6645  3.64$  6.53$  3.85$
  Q  -1.3290  3.08$  6.89$  4.35$
  Q  0.6645  3.4$  6.52$  14.24$
  Q  0.6645  2.39$  7.66$  14.77$
  Q  -1.3290  2.94$  7.25$  14.24$
  Q  0.6645  6.94$  6.66$  15.94$
  Q  0.6645  6.24$  7.95$  15.21$
  Q  -1.3290  6.45$  7.11$  15.38$
  Q  0.6645  4.64$  19.33$  6.62$
  Q  0.6645  5.37$  18.02$  6.59$
  Q  -1.3290  4.69$  18.48$  6.58$
  Q  0.6645  8.08$  12.82$  15.31$
  Q  0.6645  7.92$  13.81$  16.38$
  Q  -1.3290  8.35$  13.24$  15.99$
  Q  0.6645  0.78$  11.12$  9.44$
  Q  0.6645  1.4$  11.52$  8.11$
  Q  -1.3290  1.39$  11.39$  8.92$
  Q  0.6645  20.62$  6.89$  4.47$
  Q  0.6645  19.28$  7.45$  4.86$
  Q  -1.3290  19.79$  6.91$  4.42$
  Q  0.6645  18.83$  6.14$  17.22$
  Q  0.6645  19.5$  7.2$  17.98$
  Q  -1.3290  19.43$  6.42$  17.72$
  Q  0.6645  8.97$  5.64$  20.55$
  Q  0.6645  10.1$  5.86$  19.49$
  Q  -1.3290  9.37$  6.06$  19.91$
  Q  0.6645  7.04$  15.77$  17.86$
  Q  0.6645  8.16$  15$  18.56$
  Q  -1.3290  7.77$  15.39$  17.9$
  Q  0.6645  2.21$  11.82$  11.14$
  Q  0.6645  3.09$  11.63$  12.33$
  Q  -1.3290  2.59$  11.36$  11.69$
  Q  0.6645  11.6$  13.39$  17.37$
  Q  0.6645  10.06$  13.15$  17.24$
  Q  -1.3290  10.82$  13.01$  17.57$
  Q  0.6645  15.67$  3.83$  6.32$
  Q  0.6645  16.51$  3.9$  5.03$
  Q  -1.3290  15.79$  3.97$  5.51$
  Q  0.6645  5.49$  17.71$  18.78$
  Q  0.6645  6.25$  18.7$  19.79$
  Q  -1.3290  5.92$  18.41$  19.03$
*
