! NoMOPrint PrintBasis #MINIPRINT SMALLPRINT LARGEPRINT
! ALLPOP XYZFILE
#! BP86 3-21G   TightSCF
! ENGRAD
! B3LYP NormalPNO PModel #DecontractAux
#! VerySlowConv 
 %maxcore 5000
 %scf  maxiter   500  end 

%pal
    nprocs 32
end

%basis
    NewGTO O    # New basis for oxygen
        "aug-cc-pVTZ"
    end
    NewGTO C    # New basis for carbon
        "aug-cc-pVTZ"
    end
    NewGTO H    # New basis for hydrogen
        "cc-pVTZ"
    end
end

* xyz 0   1
  C  10.75  12.7  9.98  #1
  H  10.88  13.41  10.75  #2
  H  9.68  12.58  9.81  #3
  C  11.39  11.33  10.3  #4
  H  11.66  10.71  9.38  #5
  H  12.37  11.64  10.74  #6
  C  10.64  10.53  11.49  #7
  H  9.6  10.35  11.16  #8
  H  10.58  11.15  12.37  #9
  C  11.28  9.16  11.91  #10
  H  12.37  9.12  11.82  #11
  H  10.99  8.31  11.22  #12
  O  11.01  8.78  13.27  #13
  H  11.12  7.84  13.43  #14
  O  11.31  13.35  8.79  #15
  H  10.82  14.12  8.54  #16
  O  10.1  16.09  8.21  #17
  H  9.3  16.06  8.83  #18
  H  9.73  15.8  7.37  #19
  O  11.65  5.91  13.48  #20
  H  10.83  5.49  13.91  #21
  H  11.71  5.4  12.7  #22
  O  9.76  14.05  13.07  #23
  H  9.05  13.46  12.7  #24
  H  10.69  13.66  13.1  #25
  O  13.78  13.47  7.77  #26
  H  12.86  13.39  8.09  #27
  H  13.63  13.23  6.81  #28
  O  10.88  11.83  5.64  #29
  H  11.24  11.81  4.75  #30
  H  11.2  12.7  5.88  #31
  O  11.89  9.59  6.75  #32
  H  11.4  10.32  6.4  #33
  H  11.6  8.9  6.14  #34
  O  14.56  9.78  11.81  #35
  H  14.62  10.08  12.7  #36
  H  14.82  10.52  11.16  #37
  O  11.89  10.55  3.03  #38
  H  11.31  10.48  2.25  #39
  H  12.07  9.68  3.42  #40
  O  14.36  13.52  12.19  #41
  H  13.95  14.27  11.71  #42
  H  14.3  12.94  11.43  #43
  O  13.05  4.61  11.12  #44
  H  13.6  5.18  10.54  #45
  H  12.61  3.98  10.5  #46
  O  16.38  13.18  5.77  #47
  H  15.64  12.67  5.43  #48
  H  15.99  13.98  6.2  #49
  O  9.24  9.99  14.75  #50
  H  9.77  10.52  15.36  #51
  H  9.97  9.52  14.24  #52
  O  10.41  5.56  10.06  #53
  H  9.6  6.02  10.29  #54
  H  11.14  5.94  10.62  #55
  O  8.28  15.46  6.05  #56
  H  7.62  16.18  5.95  #57
  H  7.91  14.59  5.8  #58
  O  6.3  9.19  11.72  #59
  H  6.36  9.73  12.48  #60
  H  6.73  9.71  11  #61
  O  8.28  18.88  8.03  #62
  H  9.2  18.97  7.76  #63
  H  8.35  18.09  8.63  #64
  O  8.96  15.52  15.35  #65
  H  9.25  15.05  14.52  #66
  H  8.53  16.3  15.01  #67
  O  7.17  11.34  13.83  #68
  H  8.1  10.98  13.83  #69
  H  6.96  11.95  14.51  #70
  O  14.44  9.24  8.38  #71
  H  13.72  9.46  7.8  #72
  H  14.92  10.04  8.5  #73
  O  10.77  16.29  11.33  #74
  H  10.59  15.42  11.72  #75
  H  10.83  16.14  10.38  #76
  O  11.14  18.75  7.89  #77
  H  11.36  17.79  7.93  #78
  H  11.94  19.14  7.45  #79
  O  12.94  4.86  15.77  #80
  H  12.72  5.41  15.04  #81
  H  13.6  5.25  16.32  #82
  O  13.07  16.74  7.89  #83
  H  13.94  16.81  7.48  #84
  H  12.83  15.84  7.71  #85
  O  14.23  11.62  5.24  #86
  H  13.84  11.08  5.92  #87
  H  14.3  11.06  4.43  #88
  O  8.12  12.35  5.38  #89
  H  7.91  12.03  4.52  #90
  H  9.03  12.15  5.61  #91
  O  7.6  10.81  9.77  #92
  H  6.81  11.16  9.32  #93
  H  8.05  10.16  9.2  #94
  O  14.36  9.32  14.53  #95
  H  13.45  9.4  14.18  #96
  H  14.56  10.03  15.11  #97
  O  7.79  14.3  9.11  #98
  H  7.41  14.01  9.92  #99
  H  7.1  14.63  8.57  #100
  O  12.24  12.74  13.65  #101
  H  12.52  12.73  14.59  #102
  H  12.96  13.14  13.09  #103
  O  8.82  5.57  13.97  #104
  H  8.81  5.15  13.13  #105
  H  8.11  6.2  14.1  #106
  O  7.38  13.01  11.78  #107
  H  7.19  12.45  12.52  #108
  H  7.71  12.32  11.23  #109
  O  8.16  17.22  10.45  #110
  H  8.93  16.88  10.87  #111
  H  7.54  16.53  10.6  #112
  O  9.26  8.86  7.99  #113
  H  9.05  7.93  7.93  #114
  H  10.23  8.9  7.86  #115
  O  15.13  11.98  9.93  #116
  H  14.92  12.29  9.04  #117
  H  16.06  12.07  10.08  #118
  Q  0.6645  9.36$  13.78$  19.5$
  Q  0.6645  8.72$  13.28$  18.22$
  Q  -1.3290  9.34$  13.54$  18.69$
  Q  0.6645  10.82$  7.21$  4.56$
  Q  0.6645  10.78$  7.13$  6.01$
  Q  -1.3290  11.1$  7.41$  5.33$
  Q  0.6645  2.42$  11.96$  9.39$
  Q  0.6645  3.74$  12.55$  8.97$
  Q  -1.3290  3.03$  12.54$  9.41$
  Q  0.6645  19.75$  14.55$  9.91$
  Q  0.6645  20.01$  14.46$  8.45$
  Q  -1.3290  19.98$  14.15$  9.24$
  Q  0.6645  12.47$  19.1$  1.25$
  Q  0.6645  13.24$  18.16$  0.32$
  Q  -1.3290  13.09$  18.88$  0.72$
  Q  0.6645  1.12$  13.19$  14.17$
  Q  0.6645  2.3$  13.21$  15.18$
  Q  -1.3290  1.5$  13.37$  14.91$
  Q  0.6645  13.95$  7.04$  9.14$
  Q  0.6645  14.35$  5.74$  8.59$
  Q  -1.3290  13.85$  6.22$  9.03$
  Q  0.6645  12.81$  2.24$  17.42$
  Q  0.6645  13.5$  0.95$  16.82$
  Q  -1.3290  13.32$  1.55$  17.4$
  Q  0.6645  15.77$  15.72$  13.21$
  Q  0.6645  15.77$  14.35$  12.61$
  Q  -1.3290  16.14$  15.05$  12.93$
  Q  0.6645  5.66$  4.15$  16.67$
  Q  0.6645  4.49$  4.4$  17.56$
  Q  -1.3290  5.23$  4.09$  17.37$
  Q  0.6645  7.83$  8.6$  15.12$
  Q  0.6645  6.66$  7.78$  15.59$
  Q  -1.3290  7.22$  8.04$  15.03$
  Q  0.6645  4.38$  15.54$  14.4$
  Q  0.6645  3.43$  16.6$  13.75$
  Q  -1.3290  4.08$  16.07$  13.79$
  Q  0.6645  9.32$  5.19$  3.26$
  Q  0.6645  9.17$  6.68$  2.91$
  Q  -1.3290  9.56$  6.01$  3.17$
  Q  0.6645  20.76$  10.35$  14.05$
  Q  0.6645  19.38$  9.9$  13.76$
  Q  -1.3290  19.94$  10.3$  14.22$
  Q  0.6645  15.51$  1.74$  13.96$
  Q  0.6645  16.31$  0.35$  13.97$
  Q  -1.3290  16.15$  1.19$  14.11$
  Q  0.6645  5.03$  5.68$  9.23$
  Q  0.6645  6.28$  5.12$  8.79$
  Q  -1.3290  5.8$  5.76$  9.06$
  Q  0.6645  17.73$  9.54$  3.57$
  Q  0.6645  16.41$  9.29$  3.19$
  Q  -1.3290  17.15$  9.55$  3.05$
  Q  0.6645  4.51$  12.16$  1.49$
  Q  0.6645  5.5$  13.29$  1.98$
  Q  -1.3290  5.28$  12.54$  1.62$
  Q  0.6645  12.42$  7.64$  0.97$
  Q  0.6645  13.25$  9$  0.84$
  Q  -1.3290  13.03$  8.25$  1.15$
  Q  0.6645  7.76$  10.45$  19.69$
  Q  0.6645  6.42$  9.75$  20.01$
  Q  -1.3290  7.18$  9.83$  19.61$
  Q  0.6645  9.88$  2.35$  15.33$
  Q  0.6645  8.75$  3.31$  15.45$
  Q  -1.3290  9.35$  2.84$  15.77$
  Q  0.6645  13.71$  3.65$  14.24$
  Q  0.6645  13.52$  3.53$  12.71$
  Q  -1.3290  13.72$  3.24$  13.48$
  Q  0.6645  14.6$  15.46$  3.62$
  Q  0.6645  15.14$  16.98$  3.57$
  Q  -1.3290  15.14$  16.12$  3.78$
  Q  0.6645  9.14$  5.72$  7.17$
  Q  0.6645  10.15$  5.94$  8.4$
  Q  -1.3290  9.86$  5.99$  7.57$
  Q  0.6645  7.84$  4.69$  5.37$
  Q  0.6645  6.88$  5.68$  6.01$
  Q  -1.3290  7.45$  5.07$  6.03$
  Q  0.6645  11.6$  16.1$  18.81$
  Q  0.6645  12.45$  14.85$  18.85$
  Q  -1.3290  12.26$  15.64$  19.04$
  Q  0.6645  18.81$  12.67$  10.24$
  Q  0.6645  17.99$  11.84$  11.25$
  Q  -1.3290  18.11$  12.35$  10.59$
  Q  0.6645  15.79$  5.26$  20.25$
  Q  0.6645  14.74$  5.33$  21.51$
  Q  -1.3290  15$  5.32$  20.69$
  Q  0.6645  10.78$  7.96$  17.89$
  Q  0.6645  12.3$  8.3$  18.27$
  Q  -1.3290  11.46$  8.44$  17.99$
  Q  0.6645  11.39$  3.94$  19.49$
  Q  0.6645  11.18$  5.26$  20.15$
  Q  -1.3290  11.32$  4.42$  20.16$
  Q  0.6645  15.54$  11.71$  19.5$
  Q  0.6645  15.92$  12.95$  18.51$
  Q  -1.3290  15.48$  12.24$  18.79$
  Q  0.6645  10.76$  0.54$  18.64$
  Q  0.6645  11.27$  1.06$  19.94$
  Q  -1.3290  10.7$  0.64$  19.47$
  Q  0.6645  17.3$  6.4$  18.86$
  Q  0.6645  17.74$  5.24$  19.9$
  Q  -1.3290  17.37$  5.58$  19.2$
  Q  0.6645  10.28$  15.61$  2.84$
  Q  0.6645  11.53$  15.25$  1.81$
  Q  -1.3290  10.98$  15.2$  2.53$
  Q  0.6645  6.83$  12.63$  16.8$
  Q  0.6645  7.65$  13.9$  16.22$
  Q  -1.3290  7.23$  13.42$  16.82$
  Q  0.6645  8.19$  2.31$  8.86$
  Q  0.6645  8.4$  0.7$  9.15$
  Q  -1.3290  8.51$  1.57$  9.27$
  Q  0.6645  6.22$  19.11$  11.7$
  Q  0.6645  7.68$  18.78$  11.32$
  Q  -1.3290  7.07$  19.19$  11.76$
  Q  0.6645  10.9$  20.37$  9.02$
  Q  0.6645  10.74$  21.78$  9.77$
  Q  -1.3290  10.94$  21.22$  9.13$
  Q  0.6645  6.3$  18.17$  15.28$
  Q  0.6645  6.2$  19.18$  16.41$
  Q  -1.3290  5.92$  18.58$  15.9$
  Q  0.6645  21.16$  8.8$  15.51$
  Q  0.6645  20.19$  7.63$  15.62$
  Q  -1.3290  20.83$  8.12$  15.88$
  Q  0.6645  11.86$  18.39$  9.82$
  Q  0.6645  13.29$  18.66$  10.42$
  Q  -1.3290  12.44$  18.58$  10.44$
  Q  0.6645  15.73$  15.9$  5.91$
  Q  0.6645  16.2$  15.93$  7.5$
  Q  -1.3290  15.85$  15.65$  6.75$
  Q  0.6645  11.79$  18.53$  3.47$
  Q  0.6645  11.8$  20.13$  3.57$
  Q  -1.3290  11.61$  19.36$  3.24$
  Q  0.6645  18.92$  14.73$  4.37$
  Q  0.6645  18.04$  13.69$  5.02$
  Q  -1.3290  18.73$  14$  4.66$
  Q  0.6645  18.95$  12.05$  15.45$
  Q  0.6645  18.29$  13.33$  15.55$
  Q  -1.3290  18.31$  12.54$  15.37$
  Q  0.6645  18.32$  15.41$  6.94$
  Q  0.6645  19.61$  14.96$  6.17$
  Q  -1.3290  19.17$  15.31$  6.79$
  Q  0.6645  13.05$  21.34$  14.42$
  Q  0.6645  13.89$  20.63$  15.59$
  Q  -1.3290  13.24$  21.07$  15.25$
  Q  0.6645  7.03$  10.83$  5.85$
  Q  0.6645  6.71$  9.28$  5.76$
  Q  -1.3290  6.56$  10.11$  5.81$
  Q  0.6645  8.35$  8.11$  1.23$
  Q  0.6645  7.47$  8.64$  2.53$
  Q  -1.3290  7.98$  8.13$  2.03$
  Q  0.6645  17.13$  16.2$  4.18$
  Q  0.6645  18.11$  16.86$  3.11$
  Q  -1.3290  17.89$  16.4$  3.81$
  Q  0.6645  16.1$  20.3$  6.66$
  Q  0.6645  16.62$  18.88$  6.7$
  Q  -1.3290  16.07$  19.48$  6.82$
  Q  0.6645  8.4$  18.78$  14.97$
  Q  0.6645  7.89$  18.23$  13.54$
  Q  -1.3290  8.14$  18.22$  14.36$
  Q  0.6645  6.51$  4.02$  11.99$
  Q  0.6645  6.66$  5.66$  12.02$
  Q  -1.3290  6.38$  4.86$  12.23$
  Q  0.6645  2.35$  5.49$  12.84$
  Q  0.6645  1.87$  4.44$  13.95$
  Q  -1.3290  1.84$  5.16$  13.49$
  Q  0.6645  21.05$  11.04$  6.86$
  Q  0.6645  19.47$  11.2$  6.8$
  Q  -1.3290  20.3$  11.17$  6.5$
  Q  0.6645  6.71$  5.66$  20.15$
  Q  0.6645  6.14$  4.53$  19.44$
  Q  -1.3290  6.37$  4.93$  20.13$
  Q  0.6645  8.17$  10.9$  2.28$
  Q  0.6645  6.59$  11.17$  2.57$
  Q  -1.3290  7.4$  10.85$  2.7$
  Q  0.6645  19.81$  8.31$  8.96$
  Q  0.6645  21.1$  9.07$  9.29$
  Q  -1.3290  20.61$  8.38$  9.24$
  Q  0.6645  18.29$  18.53$  9.08$
  Q  0.6645  19.2$  19.62$  9.53$
  Q  -1.3290  18.5$  19.16$  9.56$
  Q  0.6645  4.6$  13.27$  15.78$
  Q  0.6645  4.35$  13.12$  14.24$
  Q  -1.3290  4.61$  13.52$  14.93$
  Q  0.6645  4.91$  1.07$  14.96$
  Q  0.6645  4.71$  1.7$  16.38$
  Q  -1.3290  4.95$  1.67$  15.56$
  Q  0.6645  13.09$  17.31$  16.4$
  Q  0.6645  13.6$  18.08$  17.58$
  Q  -1.3290  13.67$  17.73$  16.82$
  Q  0.6645  3.41$  10.27$  4.48$
  Q  0.6645  4.98$  10.31$  4.72$
  Q  -1.3290  4.23$  10.34$  4.27$
  Q  0.6645  5.91$  18.23$  4.41$
  Q  0.6645  4.77$  17.52$  3.48$
  Q  -1.3290  5.39$  18.05$  3.73$
  Q  0.6645  5.01$  15.3$  7.89$
  Q  0.6645  5.24$  14.48$  6.5$
  Q  -1.3290  5.34$  14.73$  7.35$
  Q  0.6645  15.9$  3.64$  8.83$
  Q  0.6645  15.7$  2.9$  7.59$
  Q  -1.3290  16.12$  3.4$  8.08$
  Q  0.6645  15.81$  13.06$  2.45$
  Q  0.6645  15.98$  11.65$  3.01$
  Q  -1.3290  15.56$  12.3$  2.74$
  Q  0.6645  18.23$  17.75$  5.01$
  Q  0.6645  18.78$  17.68$  6.4$
  Q  -1.3290  18.38$  18.04$  5.79$
  Q  0.6645  10.77$  0.48$  7.04$
  Q  0.6645  10.43$  1.76$  6.46$
  Q  -1.3290  10.44$  0.96$  6.47$
  Q  0.6645  13.07$  6.65$  5.38$
  Q  0.6645  14.37$  6.49$  6.13$
  Q  -1.3290  13.9$  6.6$  5.46$
  Q  0.6645  4.02$  14.41$  17.71$
  Q  0.6645  5.46$  14.04$  17.64$
  Q  -1.3290  4.63$  13.89$  17.55$
  Q  0.6645  4.78$  18.1$  10.18$
  Q  0.6645  3.87$  19.05$  10.79$
  Q  -1.3290  4.61$  18.82$  10.56$
  Q  0.6645  9.75$  4.06$  10.95$
  Q  0.6645  9.01$  2.8$  11.43$
  Q  -1.3290  9.28$  3.59$  11.5$
  Q  0.6645  8.19$  2.31$  19.64$
  Q  0.6645  7.67$  3.45$  20.51$
  Q  -1.3290  8.05$  2.69$  20.38$
  Q  0.6645  9.91$  11.56$  17.32$
  Q  0.6645  10.95$  10.31$  17.31$
  Q  -1.3290  10.54$  11.03$  17.02$
  Q  0.6645  16.37$  4.09$  11.03$
  Q  0.6645  16.32$  5.61$  10.91$
  Q  -1.3290  16.56$  4.84$  10.7$
  Q  0.6645  10.81$  6.44$  1.61$
  Q  0.6645  10.87$  5.66$  0.23$
  Q  -1.3290  10.93$  6.32$  0.75$
  Q  0.6645  14.88$  8.37$  19.07$
  Q  0.6645  14.07$  7.22$  19.48$
  Q  -1.3290  14.22$  7.89$  19.03$
  Q  0.6645  14$  19.66$  5.93$
  Q  0.6645  12.96$  20.68$  5.38$
  Q  -1.3290  13.28$  20.11$  5.92$
  Q  0.6645  18.86$  16.19$  11.27$
  Q  0.6645  17.52$  15.41$  11.39$
  Q  -1.3290  18.15$  15.79$  10.99$
  Q  0.6645  2.07$  13.77$  6.37$
  Q  0.6645  2.04$  13.77$  7.96$
  Q  -1.3290  1.75$  13.92$  7.16$
  Q  0.6645  9.75$  15.51$  17.93$
  Q  0.6645  9.58$  16.51$  16.93$
  Q  -1.3290  9.96$  16.2$  17.58$
  Q  0.6645  3.41$  16.31$  9.57$
  Q  0.6645  4.7$  15.9$  10.23$
  Q  -1.3290  4.25$  16.3$  9.67$
  Q  0.6645  7.22$  3.65$  7.48$
  Q  0.6645  6.3$  3.05$  8.55$
  Q  -1.3290  6.99$  3.45$  8.28$
  Q  0.6645  17.48$  9.52$  15.97$
  Q  0.6645  18.91$  9.09$  16.09$
  Q  -1.3290  18.16$  9.33$  16.38$
  Q  0.6645  13.21$  3.27$  6.8$
  Q  0.6645  14.18$  3.1$  5.67$
  Q  -1.3290  13.9$  2.96$  6.43$
  Q  0.6645  20.51$  4.5$  9.98$
  Q  0.6645  19.12$  4.92$  10.58$
  Q  -1.3290  19.97$  4.77$  10.59$
  Q  0.6645  12.05$  12.4$  20.38$
  Q  0.6645  12.62$  11.75$  21.63$
  Q  -1.3290  12.12$  12.28$  21.2$
  Q  0.6645  2.57$  9.36$  11.22$
  Q  0.6645  1.21$  9.92$  11.29$
  Q  -1.3290  2.01$  9.95$  11.35$
  Q  0.6645  17.27$  8.84$  19.45$
  Q  0.6645  17.47$  8.77$  17.95$
  Q  -1.3290  17.05$  8.64$  18.67$
  Q  0.6645  6.29$  14.66$  11.98$
  Q  0.6645  5.47$  15.93$  12.47$
  Q  -1.3290  5.95$  15.44$  11.97$
  Q  0.6645  16.63$  5.42$  7.29$
  Q  0.6645  16.55$  6.93$  7.66$
  Q  -1.3290  16.27$  6.18$  7.41$
  Q  0.6645  12.63$  18.98$  14.67$
  Q  0.6645  12.12$  17.6$  14.57$
  Q  -1.3290  12.18$  18.39$  14.33$
  Q  0.6645  1.79$  9.17$  8.21$
  Q  0.6645  1.57$  7.59$  7.9$
  Q  -1.3290  1.94$  8.38$  7.89$
  Q  0.6645  14.64$  10.84$  0.11$
  Q  0.6645  14.19$  11.35$  1.44$
  Q  -1.3290  14.1$  10.9$  0.74$
  Q  0.6645  18.66$  8.05$  7.19$
  Q  0.6645  17.73$  9.16$  7.73$
  Q  -1.3290  18.15$  8.42$  7.74$
  Q  0.6645  17.65$  11.72$  8.33$
  Q  0.6645  17.24$  12.01$  6.92$
  Q  -1.3290  17.56$  11.51$  7.55$
  Q  0.6645  10.05$  5.51$  18.1$
  Q  0.6645  8.77$  6.37$  18.52$
  Q  -1.3290  9.62$  6.14$  18.48$
  Q  0.6645  11.72$  4.13$  16.86$
  Q  0.6645  10.5$  3.22$  17.07$
  Q  -1.3290  11.2$  3.63$  17.33$
  Q  0.6645  3.27$  4.08$  11.21$
  Q  0.6645  4.53$  4.92$  11.56$
  Q  -1.3290  3.68$  4.78$  11.31$
  Q  0.6645  7.65$  20.86$  12.58$
  Q  0.6645  8.59$  22.04$  12.64$
  Q  -1.3290  7.9$  21.63$  12.81$
  Q  0.6645  3.7$  2.91$  8.69$
  Q  0.6645  4.7$  2.43$  9.82$
  Q  -1.3290  4.34$  2.46$  9.02$
  Q  0.6645  6.75$  20.76$  10.02$
  Q  0.6645  7.42$  20.45$  8.77$
  Q  -1.3290  7.03$  20.96$  9.3$
  Q  0.6645  19.44$  5.5$  14.63$
  Q  0.6645  18.32$  6.46$  14.52$
  Q  -1.3290  19.04$  6.19$  14.81$
  Q  0.6645  -0.33$  13.62$  12.83$
  Q  0.6645  1.06$  13.39$  12.15$
  Q  -1.3290  0.33$  13.14$  12.54$
  Q  0.6645  17.4$  14.99$  14.59$
  Q  0.6645  17.42$  15.8$  15.77$
  Q  -1.3290  17.77$  15.2$  15.3$
  Q  0.6645  13.12$  21.36$  12.08$
  Q  0.6645  12.52$  20.31$  12.85$
  Q  -1.3290  13.13$  20.81$  12.67$
  Q  0.6645  3.55$  6.87$  11.56$
  Q  0.6645  4.59$  8.03$  11.51$
  Q  -1.3290  3.82$  7.7$  11.64$
  Q  0.6645  6.59$  10.22$  15.66$
  Q  0.6645  6.98$  10.36$  17.2$
  Q  -1.3290  6.62$  10.57$  16.45$
  Q  0.6645  8.16$  2.24$  17.15$
  Q  0.6645  6.67$  2.27$  17.53$
  Q  -1.3290  7.49$  2.05$  17.64$
  Q  0.6645  16.16$  5.7$  15.1$
  Q  0.6645  15.63$  7.14$  14.88$
  Q  -1.3290  16.06$  6.43$  14.7$
  Q  0.6645  17.35$  16.47$  9.41$
  Q  0.6645  16.41$  17.58$  8.98$
  Q  -1.3290  16.96$  16.99$  8.87$
  Q  0.6645  11.8$  1.9$  10.74$
  Q  0.6645  10.51$  2.26$  10.17$
  Q  -1.3290  11.3$  2.36$  10.26$
  Q  0.6645  11.69$  1.26$  15.34$
  Q  0.6645  12.23$  2.27$  14.07$
  Q  -1.3290  11.67$  1.77$  14.57$
  Q  0.6645  15.81$  18.62$  14.11$
  Q  0.6645  14.75$  18.01$  13.22$
  Q  -1.3290  15.47$  18.01$  13.66$
  Q  0.6645  17.68$  17.92$  12.85$
  Q  0.6645  18.09$  18.21$  11.45$
  Q  -1.3290  18.2$  18.22$  12.26$
  Q  0.6645  2.73$  8.3$  14.84$
  Q  0.6645  3.32$  8.5$  13.46$
  Q  -1.3290  3.21$  8.66$  14.27$
  Q  0.6645  3.05$  14.74$  12.54$
  Q  0.6645  3.17$  14.03$  11.13$
  Q  -1.3290  2.8$  14.53$  11.77$
  Q  0.6645  7.28$  0.29$  7.51$
  Q  0.6645  8.39$  0.44$  6.3$
  Q  -1.3290  7.62$  0.34$  6.69$
  Q  0.6645  15.71$  11.35$  17.02$
  Q  0.6645  16.53$  11.72$  15.73$
  Q  -1.3290  15.98$  11.29$  16.23$
  Q  0.6645  7.75$  15.69$  3.11$
  Q  0.6645  8.62$  16.33$  4.14$
  Q  -1.3290  8.33$  16.22$  3.37$
  Q  0.6645  5.94$  3.15$  15.01$
  Q  0.6645  6.77$  4.19$  14.22$
  Q  -1.3290  6.5$  3.78$  14.9$
  Q  0.6645  5.29$  10.92$  7.72$
  Q  0.6645  5.81$  12.31$  7.47$
  Q  -1.3290  5.51$  11.68$  7.96$
  Q  0.6645  7.91$  18.42$  4.96$
  Q  0.6645  7.52$  18.32$  6.38$
  Q  -1.3290  7.46$  18.1$  5.6$
  Q  0.6645  18.19$  3.1$  15.35$
  Q  0.6645  16.77$  2.59$  15.44$
  Q  -1.3290  17.39$  3.07$  15.63$
  Q  0.6645  8.48$  12.07$  22.21$
  Q  0.6645  6.96$  12.1$  21.9$
  Q  -1.3290  7.76$  12.26$  21.79$
  Q  0.6645  15.37$  7.9$  11.87$
  Q  0.6645  16.04$  6.89$  12.76$
  Q  -1.3290  15.99$  7.36$  12.04$
  Q  0.6645  19.71$  10.8$  18.6$
  Q  0.6645  18.82$  10.96$  17.26$
  Q  -1.3290  19.45$  11.18$  17.88$
  Q  0.6645  10.4$  -0.51$  11.85$
  Q  0.6645  10.89$  0.7$  12.62$
  Q  -1.3290  10.44$  0.32$  11.99$
  Q  0.6645  9.65$  18.99$  3.46$
  Q  0.6645  8.53$  18.2$  2.92$
  Q  -1.3290  8.86$  18.91$  3.19$
  Q  0.6645  15.13$  20.58$  13.43$
  Q  0.6645  16.41$  20.54$  12.56$
  Q  -1.3290  15.98$  20.6$  13.29$
  Q  0.6645  12.79$  15.25$  15.24$
  Q  0.6645  11.55$  15.92$  16.02$
  Q  -1.3290  12.21$  15.85$  15.46$
  Q  0.6645  4.08$  13.5$  4.31$
  Q  0.6645  5.13$  12.56$  4.64$
  Q  -1.3290  4.84$  13.3$  4.52$
  Q  0.6645  15.11$  19.45$  8.61$
  Q  0.6645  15.22$  19.72$  10.07$
  Q  -1.3290  14.96$  19.28$  9.42$
  Q  0.6645  5.16$  6.99$  5.63$
  Q  0.6645  5.95$  6.79$  4.2$
  Q  -1.3290  5.84$  6.92$  5.05$
  Q  0.6645  14.01$  15.93$  9.86$
  Q  0.6645  12.87$  16.04$  10.88$
  Q  -1.3290  13.61$  15.79$  10.6$
  Q  0.6645  10.01$  7.64$  21.88$
  Q  0.6645  9.02$  8$  20.78$
  Q  -1.3290  9.36$  8.1$  21.55$
  Q  0.6645  12.03$  14.11$  21.66$
  Q  0.6645  12.12$  15.43$  21$
  Q  -1.3290  11.94$  14.93$  21.62$
  Q  0.6645  15.63$  19.27$  3.7$
  Q  0.6645  16.06$  18.61$  2.36$
  Q  -1.3290  15.59$  18.73$  3.05$
  Q  0.6645  18.85$  2.73$  12.39$
  Q  0.6645  17.59$  2.6$  13.21$
  Q  -1.3290  18.02$  2.75$  12.52$
  Q  0.6645  14.69$  3.08$  20.11$
  Q  0.6645  14.36$  2.18$  18.95$
  Q  -1.3290  14.84$  2.47$  19.56$
  Q  0.6645  14.71$  12.79$  15.82$
  Q  0.6645  13.73$  13.12$  16.97$
  Q  -1.3290  14.06$  13.19$  16.18$
  Q  0.6645  11.86$  16.07$  4.43$
  Q  0.6645  12.09$  17.16$  5.51$
  Q  -1.3290  11.85$  16.85$  4.78$
  Q  0.6645  14.26$  8.8$  2.74$
  Q  0.6645  14.41$  8.06$  4.19$
  Q  -1.3290  14.56$  8.66$  3.53$
  Q  0.6645  10$  21.68$  16.42$
  Q  0.6645  11.53$  21.34$  16.5$
  Q  -1.3290  10.83$  21.83$  16.58$
  Q  0.6645  13.51$  0.44$  9.74$
  Q  0.6645  14.55$  1.06$  10.65$
  Q  -1.3290  13.79$  0.84$  10.43$
  Q  0.6645  6.55$  7.32$  17.54$
  Q  0.6645  6.98$  8.16$  18.78$
  Q  -1.3290  6.96$  7.45$  18.27$
  Q  0.6645  4.87$  6.69$  7.48$
  Q  0.6645  3.56$  7.42$  7.12$
  Q  -1.3290  4.18$  6.88$  7.01$
  Q  0.6645  17.03$  2.03$  9.46$
  Q  0.6645  17$  2.02$  11.05$
  Q  -1.3290  16.71$  1.88$  10.24$
  Q  0.6645  10.33$  19.1$  13.02$
  Q  0.6645  11.22$  19.22$  11.74$
  Q  -1.3290  10.63$  19.44$  12.29$
  Q  0.6645  10.72$  11.45$  0.28$
  Q  0.6645  9.81$  10.22$  0.31$
  Q  -1.3290  10.13$  10.92$  0.59$
  Q  0.6645  4.46$  7.72$  15.89$
  Q  0.6645  4.35$  7.66$  17.27$
  Q  -1.3290  4.8$  7.64$  16.59$
  Q  0.6645  0.2$  8.84$  13.05$
  Q  0.6645  1.34$  9.65$  13.7$
  Q  -1.3290  0.56$  9.33$  13.63$
  Q  0.6645  6.78$  1.84$  10.88$
  Q  0.6645  5.54$  1.83$  11.85$
  Q  -1.3290  6.07$  2.15$  11.27$
  Q  0.6645  19.53$  8.55$  12.15$
  Q  0.6645  17.98$  8.81$  12.02$
  Q  -1.3290  18.8$  9.01$  12.12$
  Q  0.6645  13.7$  13.33$  4.07$
  Q  0.6645  12.43$  13.94$  3.65$
  Q  -1.3290  13.04$  13.83$  4.15$
  Q  0.6645  11.86$  12.5$  17.83$
  Q  0.6645  13.17$  12.29$  18.73$
  Q  -1.3290  12.51$  12.71$  18.38$
  Q  0.6645  15.56$  4.68$  17.51$
  Q  0.6645  15.01$  5.99$  17.88$
  Q  -1.3290  15.17$  5.4$  17.34$
  Q  0.6645  4.17$  10.85$  13.95$
  Q  0.6645  3.29$  11.32$  12.74$
  Q  -1.3290  3.73$  11.41$  13.49$
  Q  0.6645  10.87$  4.29$  7.04$
  Q  0.6645  11.36$  3.1$  7.89$
  Q  -1.3290  11.2$  3.5$  7.18$
  Q  0.6645  13.51$  -0.43$  7.12$
  Q  0.6645  13.78$  1.17$  7.22$
  Q  -1.3290  13.78$  0.35$  7.47$
  Q  0.6645  15.67$  17.11$  16.74$
  Q  0.6645  17.22$  17.59$  16.84$
  Q  -1.3290  16.53$  17.11$  16.6$
  Q  0.6645  17.11$  20.44$  10.2$
  Q  0.6645  16.63$  21.87$  10.32$
  Q  -1.3290  16.54$  21.02$  10.31$
  Q  0.6645  21.54$  11.6$  11.77$
  Q  0.6645  20.27$  10.8$  11.35$
  Q  -1.3290  21.1$  11.03$  11.3$
  Q  0.6645  7.12$  6.67$  10.26$
  Q  0.6645  7.48$  7.84$  11.25$
  Q  -1.3290  7.61$  7.14$  10.77$
  Q  0.6645  13.57$  3.7$  3.47$
  Q  0.6645  14.15$  5.02$  4.25$
  Q  -1.3290  14.1$  4.19$  3.94$
  Q  0.6645  6.47$  16.08$  1.47$
  Q  0.6645  5.59$  15.54$  2.7$
  Q  -1.3290  6.13$  15.5$  2.01$
*
