! NoMOPrint PrintBasis #MINIPRINT SMALLPRINT LARGEPRINT
! ALLPOP XYZFILE
#! BP86 3-21G   TightSCF
! ENGRAD
! B3LYP NormalPNO PModel #DecontractAux
#! VerySlowConv 
 %maxcore 5000
 %scf  maxiter   500  end 

%pal
    nprocs 32
end

%basis
    NewGTO O    # New basis for oxygen
        "aug-cc-pVTZ"
    end
    NewGTO C    # New basis for carbon
        "aug-cc-pVTZ"
    end
    NewGTO H    # New basis for hydrogen
        "cc-pVTZ"
    end
end

* xyz 0   1
  C  10.07  10.8  12.35  #1
  H  11.07  11.24  12.55  #2
  H  9.83  10.3  13.22  #3
  C  10.2  9.84  11.2  #4
  H  10.92  9.1  11.46  #5
  H  9.23  9.34  11.2  #6
  C  10.48  10.47  9.83  #7
  H  9.61  11.06  9.42  #8
  H  10.66  9.63  9.12  #9
  C  11.72  11.34  9.87  #10
  H  12.5  10.86  10.37  #11
  H  11.62  12.29  10.55  #12
  O  12.22  11.8  8.55  #13
  H  12.6  12.67  8.57  #14
  O  9.17  11.91  12.04  #15
  H  9.29  12.57  12.74  #16
  O  12.11  8.27  14.35  #17
  H  12.98  8.66  14.17  #18
  H  11.53  8.9  14.9  #19
  O  12.13  15.48  11.4  #20
  H  11.87  15.61  12.34  #21
  H  12.78  14.79  11.52  #22
  O  10.93  12.23  15.1  #23
  H  11.56  12.12  14.37  #24
  H  11.27  11.6  15.74  #25
  O  8.24  14.3  13.65  #26
  H  7.36  13.88  13.79  #27
  H  8.28  14.82  12.87  #28
  O  13.44  14.27  7.67  #29
  H  13.19  15.19  7.88  #30
  H  14.44  14.35  7.63  #31
  O  7.46  8.36  13.52  #32
  H  7.02  9.16  13.2  #33
  H  7.66  7.83  12.72  #34
  O  11.54  16.2  8.59  #35
  H  11.77  15.73  9.39  #36
  H  10.84  15.7  8.18  #37
  O  10.48  6.73  12.79  #38
  H  10.89  5.85  12.93  #39
  H  11.05  7.42  13.2  #40
  O  6.28  10.9  12.57  #41
  H  5.71  11.38  13.14  #42
  H  7.06  11.43  12.6  #43
  O  11.01  9.51  16.55  #44
  H  11.84  9.11  16.85  #45
  H  10.37  8.78  16.5  #46
  O  14.5  16.88  11.32  #47
  H  13.64  16.44  11.29  #48
  H  14.69  16.75  12.28  #49
  O  5.65  13.19  14.28  #50
  H  5.05  13.75  14.87  #51
  H  5.39  13.53  13.4  #52
  O  9.68  14.83  15.9  #53
  H  10.2  14.06  15.68  #54
  H  8.97  14.79  15.25  #55
  O  11.17  10.5  6.44  #56
  H  10.33  10.97  6.26  #57
  H  11.58  10.87  7.24  #58
  O  15.5  10.68  9.2  #59
  H  14.63  11.05  8.94  #60
  H  15.37  10.05  9.96  #61
  O  16.29  14.55  7.61  #62
  H  16.5  15.34  7.04  #63
  H  16.39  14.84  8.54  #64
  O  13.39  7.36  8.85  #65
  H  14.06  7.62  8.16  #66
  H  12.58  7.73  8.45  #67
  O  12.25  12.79  18.12  #68
  H  11.54  12.09  18.2  #69
  H  12.9  12.46  17.55  #70
  O  10.81  16.5  13.9  #71
  H  10.44  16.03  14.64  #72
  H  10.1  17.02  13.47  #73
  O  13.45  10.95  13.17  #74
  H  13.83  11.17  14.03  #75
  H  14.07  10.35  12.8  #76
  O  9.87  5.96  9.98  #77
  H  9.85  4.98  10.09  #78
  H  10.04  6.38  10.8  #79
  O  7.71  13.38  10.27  #80
  H  7.34  13.07  9.42  #81
  H  8.33  12.66  10.59  #82
  O  14.99  8.56  14.38  #83
  H  14.98  7.68  14  #84
  H  15.85  8.75  14.73  #85
  O  10.75  7.47  7.71  #86
  H  10.17  8.12  7.26  #87
  H  10.35  7.17  8.56  #88
  O  7.2  7.02  11.1  #89
  H  6.78  7.45  10.34  #90
  H  8.04  6.68  10.74  #91
  O  12.74  15.13  5.16  #92
  H  12.85  14.72  6.01  #93
  H  13.39  14.85  4.61  #94
  O  8.31  11.66  16  #95
  H  9.14  12.22  16  #96
  H  7.69  12.34  15.97  #97
  O  13.81  13.34  11.23  #98
  H  14.68  13.42  10.79  #99
  H  13.88  12.68  11.91  #100
  O  9.12  15.68  10.97  #101
  H  8.77  14.96  10.47  #102
  H  10.04  15.54  10.85  #103
  Q  0.6645  17.19$  9.28$  4.22$
  Q  0.6645  17.69$  10.35$  5.34$
  Q  -1.3290  17.59$  10.01$  4.53$
  Q  0.6645  5.4$  8.29$  15.55$
  Q  0.6645  6.54$  7.54$  14.81$
  Q  -1.3290  5.91$  7.61$  15.35$
  Q  0.6645  13.4$  10.54$  19.9$
  Q  0.6645  14.68$  10.3$  20.51$
  Q  -1.3290  14.23$  10.57$  19.93$
  Q  0.6645  20.37$  12.47$  11.57$
  Q  0.6645  19.53$  11.15$  11.81$
  Q  -1.3290  20.13$  11.75$  11.98$
  Q  0.6645  4.14$  14.92$  3.37$
  Q  0.6645  5.42$  14.5$  2.78$
  Q  -1.3290  4.95$  14.97$  3.29$
  Q  0.6645  12.56$  21.24$  11.46$
  Q  0.6645  12.84$  20.91$  9.93$
  Q  -1.3290  12.77$  21.4$  10.63$
  Q  0.6645  6.51$  3.94$  4.92$
  Q  0.6645  5.81$  5.38$  5.01$
  Q  -1.3290  6.12$  4.6$  5.28$
  Q  0.6645  16.6$  4.52$  14.75$
  Q  0.6645  18.14$  4.68$  14.47$
  Q  -1.3290  17.47$  4.43$  14.91$
  Q  0.6645  2.91$  5.48$  13.51$
  Q  0.6645  2.84$  4.12$  14.39$
  Q  -1.3290  2.57$  4.9$  14.08$
  Q  0.6645  5.15$  7.45$  3.84$
  Q  0.6645  4.13$  7.25$  5.1$
  Q  -1.3290  4.71$  6.99$  4.47$
  Q  0.6645  14.12$  3.14$  12.23$
  Q  0.6645  13.57$  4.13$  11.17$
  Q  -1.3290  14.15$  3.79$  11.72$
  Q  0.6645  13.33$  3.8$  3.71$
  Q  0.6645  12.6$  5.04$  3.25$
  Q  -1.3290  13.16$  4.38$  3.17$
  Q  0.6645  8.29$  9.66$  21.27$
  Q  0.6645  7.53$  10.22$  20.09$
  Q  -1.3290  8.03$  10.27$  20.77$
  Q  0.6645  9.06$  6.37$  14.63$
  Q  0.6645  8.11$  5.16$  15.12$
  Q  -1.3290  8.48$  5.94$  15.13$
  Q  0.6645  11.97$  4.55$  14.65$
  Q  0.6645  12.41$  3.72$  13.56$
  Q  -1.3290  11.88$  4.24$  13.92$
  Q  0.6645  4.46$  16.1$  9.65$
  Q  0.6645  4.09$  15.24$  8.42$
  Q  -1.3290  4.39$  15.93$  8.82$
  Q  0.6645  6.43$  12.93$  17.56$
  Q  0.6645  6.03$  11.57$  17.6$
  Q  -1.3290  5.97$  12.32$  17.33$
  Q  0.6645  11.21$  18.73$  5.31$
  Q  0.6645  10.37$  17.64$  4.65$
  Q  -1.3290  10.52$  18.39$  4.99$
  Q  0.6645  8.91$  1.84$  8.2$
  Q  0.6645  8.22$  2.71$  9.26$
  Q  -1.3290  8.65$  2.54$  8.55$
  Q  0.6645  13.22$  17.04$  5.73$
  Q  0.6645  14.18$  18.05$  5.35$
  Q  -1.3290  13.62$  17.74$  5.85$
  Q  0.6645  10.41$  18.94$  8.33$
  Q  0.6645  10.64$  17.76$  9.27$
  Q  -1.3290  10.59$  18.57$  9.05$
  Q  0.6645  17.41$  3.74$  10.25$
  Q  0.6645  18.04$  5.05$  9.93$
  Q  -1.3290  17.55$  4.37$  9.75$
  Q  0.6645  14.86$  2.47$  10.27$
  Q  0.6645  14.13$  1.14$  10.31$
  Q  -1.3290  14.83$  1.64$  10.19$
  Q  0.6645  11.91$  4.24$  9.82$
  Q  0.6645  12.76$  5.52$  9.43$
  Q  -1.3290  12.59$  4.67$  9.55$
  Q  0.6645  4.74$  9.54$  11.62$
  Q  0.6645  3.87$  10.02$  10.48$
  Q  -1.3290  4.1$  9.48$  11.08$
  Q  0.6645  18.26$  10.25$  10.13$
  Q  0.6645  18.01$  9.3$  11.26$
  Q  -1.3290  18.09$  10.06$  10.93$
  Q  0.6645  17.13$  13.09$  13.97$
  Q  0.6645  16.25$  13.04$  12.68$
  Q  -1.3290  16.62$  13.4$  13.35$
  Q  0.6645  4.99$  16.48$  19.81$
  Q  0.6645  3.82$  15.74$  19.09$
  Q  -1.3290  4.54$  15.81$  19.57$
  Q  0.6645  9.96$  19.91$  10.65$
  Q  0.6645  9.66$  21.28$  10.06$
  Q  -1.3290  9.51$  20.61$  10.55$
  Q  0.6645  16.16$  6.13$  13.31$
  Q  0.6645  15.09$  5.16$  12.91$
  Q  -1.3290  15.44$  5.73$  13.42$
  Q  0.6645  3.68$  10.2$  4.62$
  Q  0.6645  2.31$  9.98$  4.05$
  Q  -1.3290  2.85$  10.21$  4.65$
  Q  0.6645  4.15$  17.94$  14.04$
  Q  0.6645  5.6$  17.87$  14.08$
  Q  -1.3290  4.91$  17.96$  13.69$
  Q  0.6645  7$  6.97$  8.24$
  Q  0.6645  5.44$  6.96$  8.46$
  Q  -1.3290  6.26$  7.25$  8.57$
  Q  0.6645  15.81$  11.69$  1.84$
  Q  0.6645  15.44$  12.79$  0.83$
  Q  -1.3290  15.47$  12.43$  1.61$
  Q  0.6645  18.38$  7.08$  6.82$
  Q  0.6645  17.44$  7.57$  7.64$
  Q  -1.3290  18.16$  7.64$  7.33$
  Q  0.6645  3.14$  4$  8.68$
  Q  0.6645  1.78$  3.61$  8.58$
  Q  -1.3290  2.42$  3.86$  9.03$
  Q  0.6645  14.05$  3.2$  6.14$
  Q  0.6645  13.21$  2.04$  5.51$
  Q  -1.3290  13.73$  2.74$  5.49$
  Q  0.6645  14.83$  2.48$  15.7$
  Q  0.6645  16.02$  1.89$  14.69$
  Q  -1.3290  15.31$  1.88$  15.25$
  Q  0.6645  15.25$  14.65$  19.19$
  Q  0.6645  14.69$  15.84$  18.26$
  Q  -1.3290  15.15$  15.15$  18.46$
  Q  0.6645  2.8$  5.69$  17.62$
  Q  0.6645  4.23$  5.46$  17.2$
  Q  -1.3290  3.61$  5.77$  17.69$
  Q  0.6645  7.05$  18.5$  10.09$
  Q  0.6645  7.89$  17.29$  10.51$
  Q  -1.3290  7.37$  17.96$  10.61$
  Q  0.6645  2.59$  2.78$  11.98$
  Q  0.6645  3.14$  3.27$  10.71$
  Q  -1.3290  3.17$  2.84$  11.42$
  Q  0.6645  0.13$  13.25$  15.82$
  Q  0.6645  1.27$  12.81$  16.79$
  Q  -1.3290  0.72$  12.73$  16.15$
  Q  0.6645  16.03$  16.41$  10.37$
  Q  0.6645  17.38$  16.7$  9.63$
  Q  -1.3290  16.72$  16.2$  9.91$
  Q  0.6645  1.42$  13.45$  14.19$
  Q  0.6645  2.22$  13.68$  12.94$
  Q  -1.3290  1.64$  13.9$  13.54$
  Q  0.6645  5.76$  10.97$  4.85$
  Q  0.6645  5.4$  10.33$  6.25$
  Q  -1.3290  5.45$  10.37$  5.42$
  Q  0.6645  10.53$  3.85$  5.85$
  Q  0.6645  9.21$  3.11$  6.35$
  Q  -1.3290  9.99$  3.19$  5.98$
  Q  0.6645  3.16$  14.73$  16.3$
  Q  0.6645  3.99$  15.68$  15.39$
  Q  -1.3290  3.79$  14.93$  15.74$
  Q  0.6645  12.53$  17.53$  14.77$
  Q  0.6645  13.2$  17.35$  16.23$
  Q  -1.3290  13.17$  17.36$  15.33$
  Q  0.6645  17.28$  12.86$  10.78$
  Q  0.6645  16.12$  12.11$  9.94$
  Q  -1.3290  16.57$  12.8$  10.3$
  Q  0.6645  15.92$  4.43$  8.52$
  Q  0.6645  14.33$  4.49$  8.6$
  Q  -1.3290  15.1$  4.34$  8.26$
  Q  0.6645  8.74$  0.5$  15.79$
  Q  0.6645  9.69$  1.71$  16.18$
  Q  -1.3290  9.11$  1.06$  16.3$
  Q  0.6645  6.36$  11.99$  2.8$
  Q  0.6645  7.42$  12.11$  4.07$
  Q  -1.3290  6.66$  12.14$  3.62$
  Q  0.6645  4.06$  19.69$  12.63$
  Q  0.6645  4.18$  21.07$  12.3$
  Q  -1.3290  3.74$  20.4$  12.45$
  Q  0.6645  16.58$  7.85$  17.33$
  Q  0.6645  16.44$  8.63$  18.58$
  Q  -1.3290  16.25$  8.01$  18.07$
  Q  0.6645  1.96$  11.48$  5.96$
  Q  0.6645  1.03$  12.39$  6.68$
  Q  -1.3290  1.32$  11.66$  6.47$
  Q  0.6645  7.84$  3.79$  16.72$
  Q  0.6645  7.76$  5.21$  17.6$
  Q  -1.3290  7.97$  4.35$  17.38$
  Q  0.6645  8.42$  10.03$  5.16$
  Q  0.6645  7.12$  9.13$  5.11$
  Q  -1.3290  7.95$  9.3$  5.17$
  Q  0.6645  17.86$  15.53$  11.34$
  Q  0.6645  17.86$  14.82$  12.68$
  Q  -1.3290  18.14$  15.35$  12.09$
  Q  0.6645  7.88$  3.1$  3.61$
  Q  0.6645  6.95$  1.89$  3.4$
  Q  -1.3290  7.41$  2.46$  3.84$
  Q  0.6645  19.19$  13.4$  14.99$
  Q  0.6645  19.44$  12.51$  13.68$
  Q  -1.3290  19.06$  12.75$  14.45$
  Q  0.6645  8.74$  12.56$  18.7$
  Q  0.6645  8.38$  13.71$  19.58$
  Q  -1.3290  8.3$  13.24$  18.88$
  Q  0.6645  11.68$  2.61$  16.74$
  Q  0.6645  11.08$  3.91$  17.24$
  Q  -1.3290  11.18$  3.27$  16.71$
  Q  0.6645  3.28$  8.08$  20$
  Q  0.6645  4.13$  7.42$  19.04$
  Q  -1.3290  3.98$  8$  19.6$
  Q  0.6645  10.68$  5.18$  18.96$
  Q  0.6645  9.51$  4.18$  18.65$
  Q  -1.3290  10.2$  4.48$  19.05$
  Q  0.6645  6.76$  9.46$  18.07$
  Q  0.6645  5.52$  9.17$  18.96$
  Q  -1.3290  6.18$  9.63$  18.66$
  Q  0.6645  15.69$  19.38$  3.97$
  Q  0.6645  15.97$  18.14$  3.02$
  Q  -1.3290  15.77$  18.55$  3.75$
  Q  0.6645  19.12$  11.86$  7.74$
  Q  0.6645  20.36$  11.92$  8.26$
  Q  -1.3290  19.73$  12.3$  8$
  Q  0.6645  16.51$  20.16$  6.52$
  Q  0.6645  15.78$  21.5$  6.09$
  Q  -1.3290  16.17$  20.75$  5.98$
  Q  0.6645  4.94$  6.71$  13.91$
  Q  0.6645  4.97$  6.07$  12.43$
  Q  -1.3290  4.6$  6.44$  13.15$
  Q  0.6645  4.95$  10.67$  8.85$
  Q  0.6645  5.72$  9.32$  8.31$
  Q  -1.3290  5.42$  10.16$  8.33$
  Q  0.6645  2.05$  7.21$  5.85$
  Q  0.6645  2.52$  8.62$  6.1$
  Q  -1.3290  2.47$  7.81$  6.24$
  Q  0.6645  11.74$  10.33$  4.79$
  Q  0.6645  12.15$  11.56$  3.73$
  Q  -1.3290  11.9$  10.74$  4$
  Q  0.6645  15.99$  13.85$  16.51$
  Q  0.6645  16.82$  12.68$  17.18$
  Q  -1.3290  16.34$  13.05$  16.56$
  Q  0.6645  8.21$  20.32$  4.51$
  Q  0.6645  9.12$  19.15$  4.07$
  Q  -1.3290  8.47$  19.69$  4.04$
  Q  0.6645  10.44$  9.19$  3.08$
  Q  0.6645  9.16$  8.65$  3.65$
  Q  -1.3290  9.8$  8.67$  3.14$
  Q  0.6645  5.3$  4.33$  7.18$
  Q  0.6645  5.68$  3.66$  8.53$
  Q  -1.3290  5.17$  4.1$  8$
  Q  0.6645  10.5$  16.26$  19.77$
  Q  0.6645  10.87$  17.24$  20.89$
  Q  -1.3290  10.86$  16.5$  20.5$
  Q  0.6645  6.21$  19.89$  17.34$
  Q  0.6645  7.2$  21.01$  17.12$
  Q  -1.3290  6.87$  20.25$  17.01$
  Q  0.6645  11.18$  6.06$  6.64$
  Q  0.6645  12.4$  5.41$  6.11$
  Q  -1.3290  11.58$  5.53$  6.18$
  Q  0.6645  11.16$  10.6$  21.41$
  Q  0.6645  10.97$  9.21$  20.93$
  Q  -1.3290  11.32$  9.95$  20.91$
  Q  0.6645  4$  9.87$  16.41$
  Q  0.6645  4.96$  10.92$  15.79$
  Q  -1.3290  4.64$  10.15$  15.91$
  Q  0.6645  6.96$  17.06$  16.2$
  Q  0.6645  6.98$  18.56$  15.83$
  Q  -1.3290  6.9$  17.72$  15.69$
  Q  0.6645  13.28$  5.82$  18.7$
  Q  0.6645  12.49$  6.71$  17.69$
  Q  -1.3290  12.8$  5.99$  18.01$
  Q  0.6645  5.08$  2.16$  13.97$
  Q  0.6645  4.72$  2.91$  12.66$
  Q  -1.3290  5.12$  2.79$  13.4$
  Q  0.6645  6.06$  3.05$  11.05$
  Q  0.6645  7.18$  2.1$  11.39$
  Q  -1.3290  6.78$  2.69$  10.92$
  Q  0.6645  1.81$  10.05$  17.97$
  Q  0.6645  3.06$  9.92$  18.66$
  Q  -1.3290  2.61$  10.21$  18.09$
  Q  0.6645  3.87$  14.03$  6.88$
  Q  0.6645  2.32$  14.17$  7.43$
  Q  -1.3290  3.14$  13.9$  7.43$
  Q  0.6645  5.38$  5.64$  15.58$
  Q  0.6645  5.02$  4.17$  15.35$
  Q  -1.3290  5.32$  4.82$  15.78$
  Q  0.6645  6.36$  15.49$  18.11$
  Q  0.6645  7.61$  14.93$  17.4$
  Q  -1.3290  6.99$  15.49$  17.52$
  Q  0.6645  3.05$  11.97$  10.21$
  Q  0.6645  3.35$  12.38$  8.76$
  Q  -1.3290  3.45$  11.93$  9.45$
  Q  0.6645  9.93$  17.78$  17.71$
  Q  0.6645  10.11$  16.27$  17.19$
  Q  -1.3290  10.12$  16.93$  17.75$
  Q  0.6645  18$  17.71$  12.5$
  Q  0.6645  17.46$  18.9$  11.85$
  Q  -1.3290  18.03$  18.48$  12.25$
  Q  0.6645  18.86$  16.01$  3.04$
  Q  0.6645  18.23$  14.69$  2.3$
  Q  -1.3290  18.26$  15.51$  2.61$
  Q  0.6645  6.46$  16.17$  8.28$
  Q  0.6645  7.72$  16.47$  7.61$
  Q  -1.3290  7.22$  16$  8.03$
  Q  0.6645  9.78$  17.02$  2.71$
  Q  0.6645  8.39$  16.72$  2.81$
  Q  -1.3290  9.13$  16.75$  3.12$
  Q  0.6645  10.73$  2.95$  13.58$
  Q  0.6645  10.2$  1.45$  13.62$
  Q  -1.3290  10.2$  2.27$  13.36$
  Q  0.6645  16.83$  10.57$  7.48$
  Q  0.6645  18.04$  9.55$  7.41$
  Q  -1.3290  17.63$  10.32$  7.33$
  Q  0.6645  14.51$  8.26$  10.56$
  Q  0.6645  15.46$  8.39$  11.81$
  Q  -1.3290  15.02$  8.67$  11.13$
  Q  0.6645  18.39$  7.61$  15.69$
  Q  0.6645  17.94$  9.05$  15.48$
  Q  -1.3290  17.83$  8.21$  15.54$
  Q  0.6645  10.12$  10.64$  19.43$
  Q  0.6645  10.22$  10.49$  17.98$
  Q  -1.3290  10.09$  10.93$  18.66$
  Q  0.6645  19.04$  11.27$  15.66$
  Q  0.6645  20.23$  10.31$  15.96$
  Q  -1.3290  19.45$  10.64$  16.05$
  Q  0.6645  4.08$  12.84$  11.87$
  Q  0.6645  3.5$  11.69$  12.71$
  Q  -1.3290  3.46$  12.38$  12.22$
  Q  0.6645  11.68$  17.14$  1.84$
  Q  0.6645  11.39$  18.5$  2.36$
  Q  -1.3290  11.26$  17.84$  1.88$
  Q  0.6645  0.03$  10.77$  11.8$
  Q  0.6645  1.44$  10.92$  12.23$
  Q  -1.3290  0.85$  10.7$  11.7$
  Q  0.6645  3.44$  7.97$  9.61$
  Q  0.6645  3.43$  7.46$  8.11$
  Q  -1.3290  3.48$  7.39$  8.96$
  Q  0.6645  13.5$  1.67$  13.92$
  Q  0.6645  12.51$  1.26$  12.76$
  Q  -1.3290  13.1$  1.74$  13.18$
  Q  0.6645  8.69$  14.65$  7.71$
  Q  0.6645  9.51$  14.5$  6.42$
  Q  -1.3290  9.39$  14.64$  7.25$
  Q  0.6645  7.31$  19.39$  7.88$
  Q  0.6645  7.9$  20.09$  9$
  Q  -1.3290  7.27$  19.88$  8.53$
  Q  0.6645  14.86$  16.5$  14.62$
  Q  0.6645  15.67$  15.24$  13.95$
  Q  -1.3290  15.35$  16.06$  14.06$
  Q  0.6645  8.62$  17.81$  20$
  Q  0.6645  8.54$  16.66$  19.17$
  Q  -1.3290  8.28$  17.11$  19.81$
  Q  0.6645  6.72$  7.4$  17.67$
  Q  0.6645  6.64$  6.77$  19.04$
  Q  -1.3290  6.96$  6.89$  18.29$
  Q  0.6645  6.65$  13$  7.36$
  Q  0.6645  6.84$  11.57$  7.88$
  Q  -1.3290  7.06$  12.37$  7.76$
  Q  0.6645  8.8$  5.19$  7.75$
  Q  0.6645  7.38$  5.08$  7.18$
  Q  -1.3290  8.06$  5.47$  7.53$
  Q  0.6645  10.05$  20.35$  17.98$
  Q  0.6645  8.82$  19.78$  17.18$
  Q  -1.3290  9.6$  19.79$  17.47$
  Q  0.6645  14.03$  10.79$  5.12$
  Q  0.6645  15.15$  10$  4.57$
  Q  -1.3290  14.72$  10.37$  5.18$
  Q  0.6645  10.01$  3.16$  2.42$
  Q  0.6645  9.9$  4.75$  2.64$
  Q  -1.3290  9.67$  3.96$  2.33$
  Q  0.6645  5.23$  17.21$  5.7$
  Q  0.6645  5.99$  16.13$  4.87$
  Q  -1.3290  5.89$  16.73$  5.46$
  Q  0.6645  8.67$  15.52$  21.13$
  Q  0.6645  7.6$  14.64$  21.71$
  Q  -1.3290  8.32$  14.79$  21.3$
  Q  0.6645  10.33$  2.56$  11.11$
  Q  0.6645  10.27$  2.71$  9.53$
  Q  -1.3290  10.49$  2.91$  10.34$
  Q  0.6645  12.59$  1$  6.91$
  Q  0.6645  11.14$  1.69$  6.28$
  Q  -1.3290  11.8$  1.09$  6.47$
  Q  0.6645  19.87$  8.12$  8.57$
  Q  0.6645  20.94$  9.22$  9.13$
  Q  -1.3290  20.46$  8.49$  9.12$
  Q  0.6645  3.07$  16.29$  11.5$
  Q  0.6645  4.44$  16.97$  11.89$
  Q  -1.3290  3.92$  16.44$  11.46$
  Q  0.6645  9.62$  8.3$  1.24$
  Q  0.6645  9.61$  7.36$  -0.01$
  Q  -1.3290  9.48$  8.07$  0.41$
  Q  0.6645  20.22$  8.87$  13.81$
  Q  0.6645  20.69$  8.23$  12.5$
  Q  -1.3290  20.16$  8.46$  13.07$
  Q  0.6645  13.66$  12.9$  2.26$
  Q  0.6645  12.26$  12.71$  1.71$
  Q  -1.3290  12.82$  13.03$  2.25$
  Q  0.6645  15.38$  18.55$  10.01$
  Q  0.6645  16$  19.98$  10.31$
  Q  -1.3290  15.99$  19.14$  10.1$
  Q  0.6645  17.14$  17.71$  6.62$
  Q  0.6645  16.8$  17.44$  5.23$
  Q  -1.3290  17.16$  17.23$  5.94$
  Q  0.6645  8.36$  12.08$  6.13$
  Q  0.6645  9.38$  12.44$  4.95$
  Q  -1.3290  8.81$  11.95$  5.4$
  Q  0.6645  13.92$  15.9$  2.14$
  Q  0.6645  12.71$  15.13$  1.7$
  Q  -1.3290  13.23$  15.79$  1.72$
  Q  0.6645  10.77$  14.61$  4.52$
  Q  0.6645  9.35$  14.96$  4.09$
  Q  -1.3290  9.95$  14.58$  4.56$
  Q  0.6645  5.83$  5.29$  10.58$
  Q  0.6645  4.27$  5.78$  10.29$
  Q  -1.3290  4.95$  5.36$  10.67$
  Q  0.6645  10.72$  21.1$  13.42$
  Q  0.6645  12.06$  21.07$  14.2$
  Q  -1.3290  11.55$  21.15$  13.51$
  Q  0.6645  7.4$  17.86$  6.03$
  Q  0.6645  8.74$  18.52$  6.18$
  Q  -1.3290  8.04$  18.19$  6.46$
  Q  0.6645  0.81$  8.73$  11.38$
  Q  0.6645  0.66$  7.33$  10.84$
  Q  -1.3290  0.63$  7.92$  11.43$
  Q  0.6645  3.31$  9.27$  13$
  Q  0.6645  3.95$  9.85$  14.17$
  Q  -1.3290  3.35$  9.81$  13.62$
  Q  0.6645  3.91$  13.19$  17.39$
  Q  0.6645  2.86$  12.27$  18.14$
  Q  -1.3290  3.15$  12.98$  17.77$
  Q  0.6645  6.19$  13.86$  11.12$
  Q  0.6645  4.96$  14.87$  11.47$
  Q  -1.3290  5.44$  14.15$  11.5$
  Q  0.6645  8.07$  8.09$  16.17$
  Q  0.6645  8.3$  9.66$  16.21$
  Q  -1.3290  8.17$  8.87$  16.5$
  Q  0.6645  13.34$  18.7$  7.66$
  Q  0.6645  12.41$  19.04$  8.82$
  Q  -1.3290  13.13$  19.09$  8.39$
  Q  0.6645  14.57$  8.4$  17.45$
  Q  0.6645  13.73$  9.27$  18.29$
  Q  -1.3290  13.88$  8.81$  17.63$
  Q  0.6645  9.99$  12.78$  0.24$
  Q  0.6645  11.43$  13.05$  -0.27$
  Q  -1.3290  10.83$  12.62$  0.2$
  Q  0.6645  11.13$  5.95$  4.4$
  Q  0.6645  10.78$  6.72$  3.18$
  Q  -1.3290  11.17$  6.11$  3.57$
  Q  0.6645  9.42$  7.32$  17.93$
  Q  0.6645  9.65$  6.27$  16.71$
  Q  -1.3290  9.89$  6.79$  17.38$
  Q  0.6645  15$  12.58$  20.36$
  Q  0.6645  14.23$  13.88$  20.83$
  Q  -1.3290  14.94$  13.36$  20.73$
  Q  0.6645  16.33$  15.42$  3.15$
  Q  0.6645  15.64$  14.32$  2.42$
  Q  -1.3290  15.65$  15.04$  2.86$
  Q  0.6645  5.53$  7.9$  1.57$
  Q  0.6645  5.91$  9.3$  1.96$
  Q  -1.3290  5.78$  8.51$  2.11$
  Q  0.6645  5.86$  13.82$  5.24$
  Q  0.6645  6.13$  14.82$  6.35$
  Q  -1.3290  5.79$  14.16$  6.01$
  Q  0.6645  19.45$  14.67$  10.92$
  Q  0.6645  19.57$  13.59$  9.67$
  Q  -1.3290  19.77$  13.99$  10.42$
  Q  0.6645  7.07$  3.09$  14.25$
  Q  0.6645  8.58$  2.97$  14.14$
  Q  -1.3290  7.84$  3.16$  14.55$
  Q  0.6645  18.24$  13.52$  4.31$
  Q  0.6645  18.29$  11.98$  4.04$
  Q  -1.3290  18.52$  12.79$  3.95$
  Q  0.6645  16.95$  19.07$  8.59$
  Q  0.6645  18.35$  19.09$  7.69$
  Q  -1.3290  17.48$  19.04$  7.88$
  Q  0.6645  18.82$  12.74$  18.41$
  Q  0.6645  18.38$  11.38$  17.7$
  Q  -1.3290  18.29$  12.15$  18.13$
  Q  0.6645  0.02$  7.09$  9.21$
  Q  0.6645  1.14$  6.17$  8.95$
  Q  -1.3290  0.4$  6.34$  9.24$
  Q  0.6645  3.64$  18.17$  16.11$
  Q  0.6645  2.36$  17.27$  15.73$
  Q  -1.3290  3.12$  17.66$  15.64$
  Q  0.6645  14.59$  -0.68$  7.93$
  Q  0.6645  14.77$  0.81$  8.34$
  Q  -1.3290  14.45$  0.15$  7.86$
  Q  0.6645  12.14$  17.47$  18.2$
  Q  0.6645  13.43$  18.5$  18.05$
  Q  -1.3290  12.97$  17.74$  18.14$
  Q  0.6645  12.21$  21.58$  16.39$
  Q  0.6645  11.65$  20.19$  16.51$
  Q  -1.3290  12.05$  20.8$  16.14$
  Q  0.6645  14.69$  11.66$  16.28$
  Q  0.6645  13.71$  10.41$  16.31$
  Q  -1.3290  14$  11.22$  16.13$
  Q  0.6645  15.64$  8.14$  2.56$
  Q  0.6645  15.88$  7.29$  3.72$
  Q  -1.3290  15.69$  7.98$  3.33$
  Q  0.6645  8.09$  17.95$  12.35$
  Q  0.6645  7.83$  17.74$  13.92$
  Q  -1.3290  8.26$  17.95$  13.2$
  Q  0.6645  0.9$  17.02$  12.48$
  Q  0.6645  1.39$  15.55$  12.68$
  Q  -1.3290  1.29$  16.27$  12.25$
  Q  0.6645  15.15$  7.99$  6.36$
  Q  0.6645  15.32$  9.23$  7.21$
  Q  -1.3290  15.37$  8.41$  7.05$
  Q  0.6645  19.62$  5.86$  11.64$
  Q  0.6645  19.84$  6.83$  10.4$
  Q  -1.3290  19.48$  6.2$  10.86$
  Q  0.6645  18.51$  15.38$  6.35$
  Q  0.6645  19.01$  14.23$  7.19$
  Q  -1.3290  19.07$  14.78$  6.55$
  Q  0.6645  5.45$  13.68$  20.02$
  Q  0.6645  6.4$  12.53$  19.7$
  Q  -1.3290  5.7$  12.87$  20.04$
  Q  0.6645  8.65$  20.02$  13.54$
  Q  0.6645  8.13$  21.46$  13.56$
  Q  -1.3290  8.65$  20.84$  13.71$
  Q  0.6645  17.39$  10.97$  0.69$
  Q  0.6645  17.66$  10.63$  2.26$
  Q  -1.3290  17.28$  10.55$  1.48$
  Q  0.6645  7.13$  21.1$  11.53$
  Q  0.6645  5.84$  21.86$  11.07$
  Q  -1.3290  6.41$  21.54$  11.63$
  Q  0.6645  15.02$  5.31$  5.21$
  Q  0.6645  14.73$  5.42$  6.74$
  Q  -1.3290  14.58$  5.56$  5.91$
  Q  0.6645  12.37$  13.8$  19.67$
  Q  0.6645  11.92$  14.95$  20.62$
  Q  -1.3290  12.38$  14.27$  20.35$
  Q  0.6645  17.91$  6.9$  11.82$
  Q  0.6645  17.9$  7.64$  13.17$
  Q  -1.3290  17.56$  7.28$  12.51$
  Q  0.6645  14.2$  4.96$  15.1$
  Q  0.6645  13.62$  4.79$  16.43$
  Q  -1.3290  13.85$  4.51$  15.7$
*
