! NoMOPrint PrintBasis #MINIPRINT SMALLPRINT LARGEPRINT
! ALLPOP XYZFILE
#! BP86 3-21G   TightSCF
! ENGRAD
! B3LYP NormalPNO PModel #DecontractAux
#! VerySlowConv 
 %maxcore 5000
 %scf  maxiter   500  end 

%pal
    nprocs 32
end

%basis
    NewGTO O    # New basis for oxygen
        "aug-cc-pVTZ"
    end
    NewGTO C    # New basis for carbon
        "aug-cc-pVTZ"
    end
    NewGTO H    # New basis for hydrogen
        "cc-pVTZ"
    end
end

* xyz 0   1
  C  10.22  12.13  10.75  #1
  H  10.39  12.73  11.65  #2
  H  9.37  11.51  10.95  #3
  C  11.41  11.36  10.34  #4
  H  11.13  10.93  9.32  #5
  H  12.31  11.98  10.17  #6
  C  11.7  10.31  11.39  #7
  H  11.53  10.79  12.4  #8
  H  12.77  9.95  11.44  #9
  C  10.88  9.14  11.18  #10
  H  11.5  8.26  10.77  #11
  H  9.99  9.26  10.63  #12
  O  10.34  8.73  12.45  #13
  H  9.39  8.82  12.35  #14
  O  9.82  13.03  9.71  #15
  H  9  13.52  9.92  #16
  O  9.24  8.62  7.9  #17
  H  10.2  8.83  8.08  #18
  H  9.02  9.28  7.28  #19
  O  10.51  6.18  6.96  #20
  H  10.84  5.91  7.76  #21
  H  10.25  7.06  7.2  #22
  O  12.44  10.91  6.36  #23
  H  13.33  10.75  5.87  #24
  H  12.77  11.36  7.18  #25
  O  13.63  14.05  11.87  #26
  H  14.35  13.61  11.43  #27
  H  13.25  13.39  12.42  #28
  O  14.95  8.63  11.23  #29
  H  15.02  9.49  10.73  #30
  H  15.62  8.81  11.98  #31
  O  11.67  14.43  8.09  #32
  H  11.27  14.44  7.16  #33
  H  11  13.98  8.59  #34
  O  7.03  8.87  9.6  #35
  H  7.83  8.36  9.44  #36
  H  6.29  8.27  9.5  #37
  O  7.58  14.79  10.11  #38
  H  7.1  15.39  9.52  #39
  H  7.01  14.07  10.44  #40
  O  8.78  12.76  7.11  #41
  H  8.19  13.47  6.86  #42
  H  8.88  12.73  8.07  #43
  O  10.65  12.63  5.13  #44
  H  10.05  12.49  5.87  #45
  H  11.28  11.83  5.16  #46
  O  16.94  8.96  12.91  #47
  H  17.47  8.93  12.03  #48
  H  17.22  8.29  13.59  #49
  O  14.46  12  7.96  #50
  H  15  11.68  8.67  #51
  H  14.34  12.96  7.94  #52
  O  14.28  7.03  8.78  #53
  H  14.51  6.09  8.75  #54
  H  14.74  7.4  9.56  #55
  O  10.91  6.03  14.07  #56
  H  10.34  6.72  13.74  #57
  H  11.02  6.25  14.97  #58
  O  8.26  12.36  13.32  #59
  H  8.37  11.42  13.17  #60
  H  8.14  12.39  14.31  #61
  O  9.18  16.17  12.44  #62
  H  8.53  16.28  13.2  #63
  H  8.56  15.7  11.91  #64
  O  8.05  7.04  13.81  #65
  H  8.27  6.8  14.73  #66
  H  7.54  7.9  13.89  #67
  O  11.63  5.49  9.71  #68
  H  10.85  6.04  9.96  #69
  H  12.43  5.97  9.89  #70
  O  16.1  10.82  9.77  #71
  H  16.12  11.63  10.34  #72
  H  16.93  10.75  9.25  #73
  O  16.18  13.1  11.43  #74
  H  17.03  12.88  11.93  #75
  H  16.49  13.78  10.76  #76
  O  12.53  16.42  10.61  #77
  H  11.9  16.45  9.88  #78
  H  12.67  15.53  10.82  #79
  O  11.41  17.3  8.29  #80
  H  11.83  18.1  7.94  #81
  H  11.35  16.67  7.56  #82
  O  11.94  15.04  5.37  #83
  H  11.77  14.13  5.2  #84
  H  12.71  15.16  4.81  #85
  O  6.93  6.83  5.91  #86
  H  6.07  6.5  6.27  #87
  H  7.38  7.46  6.45  #88
  O  7.82  10.24  6.23  #89
  H  7.66  10.22  5.29  #90
  H  7.81  11.18  6.55  #91
  O  7.83  9.58  12.37  #92
  H  7.42  9.55  11.5  #93
  H  7.09  9.52  12.96  #94
  O  14.57  15.48  14.02  #95
  H  14.32  15.09  13.18  #96
  H  15.53  15.48  13.96  #97
  O  6.24  12.58  11.47  #98
  H  6.88  12.5  12.21  #99
  H  6.64  12.06  10.72  #100
  O  15.12  9.92  5.2  #101
  H  15.83  10.42  4.73  #102
  H  15.58  9.28  5.76  #103
  O  13.69  6.95  13.31  #104
  H  13.66  7.63  12.62  #105
  H  12.76  6.73  13.45  #106
  O  7.08  11.62  9.21  #107
  H  7.06  10.6  9.18  #108
  H  6.43  11.97  8.62  #109
  O  11.4  9.67  14.7  #110
  H  10.63  9.87  15.32  #111
  H  11.06  9.04  14.04  #112
  O  11.94  8.79  8.11  #113
  H  12.55  8.08  8.35  #114
  H  12.56  9.41  7.68  #115
  O  12.34  12.36  13.96  #116
  H  12.06  11.44  14.05  #117
  H  11.53  12.81  14.17  #118
  O  14.5  14.75  8.06  #119
  H  15  14.77  8.87  #120
  H  13.64  14.95  8.37  #121
  O  11.88  8.42  4.89  #122
  H  11.44  8.89  5.54  #123
  H  11.37  7.61  4.9  #124
  O  9.1  6.56  10.49  #125
  H  8.61  7.23  10.98  #126
  H  8.46  5.82  10.49  #127
  Q  0.6645  9.47$  6.11$  16.81$
  Q  0.6645  8$  5.48$  16.78$
  Q  -1.3290  8.62$  6.06$  16.65$
  Q  0.6645  1.26$  9.58$  9.85$
  Q  0.6645  0.96$  8.27$  10.54$
  Q  -1.3290  0.9$  9.1$  10.47$
  Q  0.6645  7.89$  15.75$  2.7$
  Q  0.6645  8.33$  14.2$  2.94$
  Q  -1.3290  8.16$  15.04$  3.13$
  Q  0.6645  12.89$  2.4$  15.48$
  Q  0.6645  12.23$  2.59$  16.89$
  Q  -1.3290  12.7$  2.15$  16.28$
  Q  0.6645  12.91$  9.84$  0.95$
  Q  0.6645  12.66$  10.04$  -0.53$
  Q  -1.3290  13.1$  10.11$  0.19$
  Q  0.6645  7.52$  1.49$  13.49$
  Q  0.6645  6.87$  1.97$  14.72$
  Q  -1.3290  7.08$  2.04$  13.9$
  Q  0.6645  16.15$  2.3$  14.22$
  Q  0.6645  14.85$  2.45$  13.43$
  Q  -1.3290  15.67$  2.26$  13.54$
  Q  0.6645  6.81$  5.42$  13.14$
  Q  0.6645  6.1$  4.08$  13.74$
  Q  -1.3290  6.17$  4.91$  13.46$
  Q  0.6645  12.5$  1.01$  6.74$
  Q  0.6645  13.23$  0.24$  7.76$
  Q  -1.3290  12.59$  0.67$  7.5$
  Q  0.6645  12.46$  16.79$  15.57$
  Q  0.6645  13.5$  16.77$  14.47$
  Q  -1.3290  12.97$  17.12$  15.01$
  Q  0.6645  4.46$  9.68$  6.13$
  Q  0.6645  5.78$  9.85$  6.92$
  Q  -1.3290  4.91$  9.87$  6.81$
  Q  0.6645  13.06$  20.34$  5.81$
  Q  0.6645  13.62$  21.77$  5.15$
  Q  -1.3290  13.53$  20.89$  5.29$
  Q  0.6645  15.99$  14.8$  1.83$
  Q  0.6645  15.02$  13.66$  2.14$
  Q  -1.3290  15.54$  14.26$  2.37$
  Q  0.6645  12.29$  1.53$  12.41$
  Q  0.6645  12.65$  1.94$  10.96$
  Q  -1.3290  12.83$  1.61$  11.74$
  Q  0.6645  11.58$  2.61$  18.68$
  Q  0.6645  10.75$  3.77$  19.02$
  Q  -1.3290  11.27$  3.38$  18.54$
  Q  0.6645  9.39$  21.35$  7.36$
  Q  0.6645  10.7$  21.86$  7.95$
  Q  -1.3290  9.86$  21.72$  7.94$
  Q  0.6645  15.98$  8.73$  3.47$
  Q  0.6645  16.1$  7.47$  2.46$
  Q  -1.3290  15.73$  8.01$  3.03$
  Q  0.6645  8.3$  6.28$  4.98$
  Q  0.6645  9.46$  5.72$  4.06$
  Q  -1.3290  8.78$  6.22$  4.25$
  Q  0.6645  16.55$  11.64$  16.51$
  Q  0.6645  15.44$  12.54$  16$
  Q  -1.3290  16.22$  12.25$  16.03$
  Q  0.6645  17.35$  19.98$  10.36$
  Q  0.6645  17.82$  18.93$  9.32$
  Q  -1.3290  17.9$  19.58$  9.86$
  Q  0.6645  21.08$  11.06$  10.25$
  Q  0.6645  20.44$  12.39$  10.03$
  Q  -1.3290  20.45$  11.55$  10.1$
  Q  0.6645  11.39$  18.39$  2.79$
  Q  0.6645  11.41$  19.88$  3.31$
  Q  -1.3290  11.71$  19.12$  3.13$
  Q  0.6645  9.75$  18.06$  8.17$
  Q  0.6645  8.76$  18.74$  9$
  Q  -1.3290  9$  18.34$  8.31$
  Q  0.6645  3.83$  10.35$  17.03$
  Q  0.6645  2.85$  9.21$  17.36$
  Q  -1.3290  3.06$  10.03$  17.17$
  Q  0.6645  18$  3.5$  11.29$
  Q  0.6645  17.36$  2.78$  12.49$
  Q  -1.3290  17.97$  3.15$  12.04$
  Q  0.6645  11.62$  20.61$  15.25$
  Q  0.6645  10.19$  20.65$  14.66$
  Q  -1.3290  10.87$  20.99$  15.03$
  Q  0.6645  3.68$  7.29$  17.13$
  Q  0.6645  3.47$  7.65$  18.53$
  Q  -1.3290  3.21$  7.49$  17.75$
  Q  0.6645  8.72$  20.39$  13.13$
  Q  0.6645  9.51$  19.09$  13.38$
  Q  -1.3290  8.88$  19.68$  13.52$
  Q  0.6645  8.86$  16.38$  18.3$
  Q  0.6645  8.07$  16.73$  17.02$
  Q  -1.3290  8.77$  16.7$  17.51$
  Q  0.6645  18.53$  6.52$  7.62$
  Q  0.6645  17.56$  5.25$  7.56$
  Q  -1.3290  17.85$  6.03$  7.78$
  Q  0.6645  19.99$  8.81$  8.72$
  Q  0.6645  20.27$  9.2$  7.13$
  Q  -1.3290  20.34$  8.71$  7.89$
  Q  0.6645  14.26$  7.54$  20.64$
  Q  0.6645  13.68$  6.19$  19.79$
  Q  -1.3290  13.67$  6.94$  20.33$
  Q  0.6645  11.76$  5.55$  3.15$
  Q  0.6645  11.81$  4.98$  4.57$
  Q  -1.3290  11.43$  5.3$  3.89$
  Q  0.6645  17.52$  3.69$  16.18$
  Q  0.6645  17.4$  5.14$  15.91$
  Q  -1.3290  17.72$  4.49$  16.29$
  Q  0.6645  15.81$  17.98$  5.46$
  Q  0.6645  16.6$  19.46$  5.53$
  Q  -1.3290  16.35$  18.66$  5.23$
  Q  0.6645  10.35$  4.11$  3.07$
  Q  0.6645  10.17$  2.91$  2.2$
  Q  -1.3290  9.89$  3.52$  2.67$
  Q  0.6645  17.65$  15.68$  10.04$
  Q  0.6645  18.05$  14.5$  9.11$
  Q  -1.3290  17.56$  14.92$  9.63$
  Q  0.6645  15.9$  6.25$  5.17$
  Q  0.6645  16.78$  5.05$  5.49$
  Q  -1.3290  16.26$  5.5$  5.04$
  Q  0.6645  8.15$  8.63$  18.81$
  Q  0.6645  7.7$  7.59$  17.73$
  Q  -1.3290  7.69$  8.33$  18.17$
  Q  0.6645  0.25$  17.02$  7.16$
  Q  0.6645  1.48$  16.22$  7.57$
  Q  -1.3290  0.99$  16.92$  7.5$
  Q  0.6645  16.85$  9.85$  17.55$
  Q  0.6645  18.35$  10.03$  17.64$
  Q  -1.3290  17.58$  10.25$  17.43$
  Q  0.6645  11.91$  5.34$  17.57$
  Q  0.6645  12.15$  6.79$  17.21$
  Q  -1.3290  11.75$  6.07$  17.17$
  Q  0.6645  9.52$  8.82$  20.89$
  Q  0.6645  8.38$  9.76$  20.87$
  Q  -1.3290  8.97$  9.31$  20.51$
  Q  0.6645  13.34$  20.13$  11.87$
  Q  0.6645  14.13$  20.69$  13.01$
  Q  -1.3290  14.03$  20.27$  12.31$
  Q  0.6645  10.73$  14.93$  15.18$
  Q  0.6645  10.01$  14.8$  13.93$
  Q  -1.3290  10.42$  14.47$  14.58$
  Q  0.6645  16.38$  2.23$  6.24$
  Q  0.6645  15.89$  1.6$  4.89$
  Q  -1.3290  16.07$  1.6$  5.73$
  Q  0.6645  14.45$  6.75$  14.85$
  Q  0.6645  14.16$  5.61$  15.78$
  Q  -1.3290  14.53$  6.31$  15.58$
  Q  0.6645  15.64$  0.79$  11.06$
  Q  0.6645  15.44$  -0.59$  11.33$
  Q  -1.3290  15.89$  0.03$  11.04$
  Q  0.6645  19.78$  10.6$  14.53$
  Q  0.6645  20.83$  11.02$  15.53$
  Q  -1.3290  20.47$  10.48$  14.99$
  Q  0.6645  7.1$  2.22$  7.43$
  Q  0.6645  6.86$  2.14$  5.84$
  Q  -1.3290  6.7$  2.35$  6.67$
  Q  0.6645  8.85$  4.35$  20.06$
  Q  0.6645  9.85$  5.4$  20.49$
  Q  -1.3290  9.59$  4.63$  20.33$
  Q  0.6645  0.8$  11.97$  15.09$
  Q  0.6645  1.46$  11.27$  13.87$
  Q  -1.3290  1.28$  11.94$  14.37$
  Q  0.6645  16.99$  7.95$  6.84$
  Q  0.6645  17.83$  9.24$  6.76$
  Q  -1.3290  17.48$  8.54$  6.48$
  Q  0.6645  19.11$  4.48$  14.92$
  Q  0.6645  18.84$  4.01$  13.48$
  Q  -1.3290  19.32$  4.23$  14.13$
  Q  0.6645  16.58$  7.13$  15.51$
  Q  0.6645  18.22$  7.4$  15.53$
  Q  -1.3290  17.44$  7.1$  15.26$
  Q  0.6645  4.25$  18.97$  3.54$
  Q  0.6645  3.8$  17.91$  4.53$
  Q  -1.3290  4.21$  18.19$  3.85$
  Q  0.6645  16.04$  3.66$  8.27$
  Q  0.6645  17.51$  3.08$  8.16$
  Q  -1.3290  16.73$  3.33$  7.88$
  Q  0.6645  12.74$  19.09$  9.94$
  Q  0.6645  11.89$  18.58$  11.1$
  Q  -1.3290  12.13$  19.13$  10.52$
  Q  0.6645  10.53$  17.22$  12.55$
  Q  0.6645  11.73$  17.4$  13.6$
  Q  -1.3290  11.08$  17.66$  13.11$
  Q  0.6645  5.07$  5.87$  10.08$
  Q  0.6645  6.25$  4.97$  10.16$
  Q  -1.3290  5.78$  5.53$  9.77$
  Q  0.6645  9.59$  4.89$  13.3$
  Q  0.6645  8.4$  3.83$  13.68$
  Q  -1.3290  9.07$  4.14$  13.26$
  Q  0.6645  12.5$  12.27$  1.61$
  Q  0.6645  13.77$  11.97$  0.92$
  Q  -1.3290  13.27$  12.44$  1.39$
  Q  0.6645  7.5$  17.02$  7.98$
  Q  0.6645  5.87$  17.02$  7.77$
  Q  -1.3290  6.66$  16.71$  7.91$
  Q  0.6645  9.45$  2.79$  4.48$
  Q  0.6645  9.02$  2.45$  5.97$
  Q  -1.3290  9.41$  2.32$  5.2$
  Q  0.6645  7.48$  20.27$  16.42$
  Q  0.6645  7.4$  19.8$  15.01$
  Q  -1.3290  7.08$  19.92$  15.76$
  Q  0.6645  6.28$  1.97$  11.58$
  Q  0.6645  5.66$  0.71$  11.87$
  Q  -1.3290  5.95$  1.27$  11.37$
  Q  0.6645  13.87$  4.08$  19.4$
  Q  0.6645  14.94$  5.09$  19.02$
  Q  -1.3290  14.15$  4.78$  19.02$
  Q  0.6645  7.09$  19.49$  10.63$
  Q  0.6645  6.12$  18.96$  9.51$
  Q  -1.3290  6.41$  19.11$  10.28$
  Q  0.6645  12.7$  9.14$  3.46$
  Q  0.6645  14.03$  8.56$  2.72$
  Q  -1.3290  13.26$  8.95$  2.81$
  Q  0.6645  7.78$  12.34$  3.62$
  Q  0.6645  9.24$  12.64$  3.9$
  Q  -1.3290  8.55$  12.56$  3.42$
  Q  0.6645  19.26$  13.08$  14.36$
  Q  0.6645  18.14$  12.59$  15.3$
  Q  -1.3290  18.89$  12.96$  15.11$
  Q  0.6645  12.84$  7.43$  1.82$
  Q  0.6645  12.82$  6.46$  0.51$
  Q  -1.3290  12.7$  6.71$  1.35$
  Q  0.6645  12.54$  12.29$  19.02$
  Q  0.6645  13.19$  12.79$  17.69$
  Q  -1.3290  13.06$  12.78$  18.54$
  Q  0.6645  3.05$  19.53$  12.84$
  Q  0.6645  2.56$  20.34$  11.67$
  Q  -1.3290  2.53$  20.03$  12.44$
  Q  0.6645  4.27$  7.44$  12.09$
  Q  0.6645  4.58$  6.02$  12.4$
  Q  -1.3290  4.43$  6.65$  11.88$
  Q  0.6645  4.4$  13.45$  14.8$
  Q  0.6645  2.97$  12.86$  14.96$
  Q  -1.3290  3.74$  13.11$  15.24$
  Q  0.6645  8.91$  0.03$  11.71$
  Q  0.6645  9.71$  0.68$  12.84$
  Q  -1.3290  9.02$  0.38$  12.47$
  Q  0.6645  12.41$  9.7$  16.52$
  Q  0.6645  13.34$  9.16$  17.67$
  Q  -1.3290  12.61$  9.41$  17.3$
  Q  0.6645  3.14$  15.24$  15.65$
  Q  0.6645  2.33$  16.28$  16.45$
  Q  -1.3290  2.91$  16.01$  15.92$
  Q  0.6645  5.29$  7.44$  20.4$
  Q  0.6645  5.92$  8$  19.1$
  Q  -1.3290  5.29$  7.79$  19.63$
  Q  0.6645  5.71$  13.28$  2.6$
  Q  0.6645  5.02$  12.19$  3.53$
  Q  -1.3290  5.61$  12.79$  3.31$
  Q  0.6645  9.67$  16.29$  4.26$
  Q  0.6645  10.71$  16.86$  5.22$
  Q  -1.3290  10.09$  16.91$  4.67$
  Q  0.6645  3.61$  14.46$  7.86$
  Q  0.6645  3.23$  15.41$  9.02$
  Q  -1.3290  3.11$  15.02$  8.27$
  Q  0.6645  4.9$  6.44$  3.89$
  Q  0.6645  6.32$  7.08$  4.02$
  Q  -1.3290  5.58$  6.87$  3.64$
  Q  0.6645  5.08$  13.88$  12.68$
  Q  0.6645  5.43$  15.08$  13.5$
  Q  -1.3290  5.06$  14.36$  13.36$
  Q  0.6645  20.02$  8.49$  16.08$
  Q  0.6645  20.77$  7.34$  16.59$
  Q  -1.3290  20.1$  7.8$  16.5$
  Q  0.6645  5.05$  6.39$  15.33$
  Q  0.6645  5.49$  7.76$  15.74$
  Q  -1.3290  5.15$  7$  15.86$
  Q  0.6645  16.65$  10.62$  2.35$
  Q  0.6645  17.86$  10.91$  3.15$
  Q  -1.3290  17.1$  10.6$  3.05$
  Q  0.6645  5.54$  13.68$  6.83$
  Q  0.6645  4.56$  12.54$  6.79$
  Q  -1.3290  5.02$  13.13$  7.16$
  Q  0.6645  7.7$  14.33$  18.92$
  Q  0.6645  6.46$  14.82$  18.22$
  Q  -1.3290  7.04$  14.22$  18.42$
  Q  0.6645  4.95$  14.93$  4.61$
  Q  0.6645  3.96$  15.74$  4.07$
  Q  -1.3290  4.21$  15.28$  4.66$
  Q  0.6645  14.51$  15.65$  3.18$
  Q  0.6645  14.15$  17.18$  3.35$
  Q  -1.3290  14.06$  16.35$  3.43$
  Q  0.6645  9.75$  9.32$  2.39$
  Q  0.6645  9.23$  7.91$  2.91$
  Q  -1.3290  9.35$  8.56$  2.33$
  Q  0.6645  1.99$  10.47$  5.82$
  Q  0.6645  1.05$  9.8$  4.81$
  Q  -1.3290  1.76$  9.86$  5.32$
  Q  0.6645  16.68$  14.15$  16.33$
  Q  0.6645  16.56$  14.97$  17.6$
  Q  -1.3290  16.79$  14.84$  16.8$
  Q  0.6645  13.9$  7.93$  5.47$
  Q  0.6645  14.49$  7.46$  6.92$
  Q  -1.3290  14.28$  7.42$  6.06$
  Q  0.6645  19.81$  8.83$  11.29$
  Q  0.6645  18.78$  7.83$  10.72$
  Q  -1.3290  19.24$  8.54$  10.74$
  Q  0.6645  3.45$  13.54$  4.97$
  Q  0.6645  2.53$  12.35$  5.64$
  Q  -1.3290  3.01$  12.77$  5.03$
  Q  0.6645  15.89$  11.96$  6.35$
  Q  0.6645  16.83$  12.8$  5.41$
  Q  -1.3290  16.57$  12.37$  6.09$
  Q  0.6645  6.66$  17$  15.05$
  Q  0.6645  6.35$  17.03$  13.55$
  Q  -1.3290  6.75$  16.74$  14.27$
  Q  0.6645  8.31$  3.77$  11.45$
  Q  0.6645  7.74$  3.54$  10.07$
  Q  -1.3290  7.77$  3.9$  10.81$
  Q  0.6645  3.81$  9.79$  8.8$
  Q  0.6645  4.3$  10.73$  9.91$
  Q  -1.3290  3.81$  10.13$  9.56$
  Q  0.6645  3.67$  9.96$  11.97$
  Q  0.6645  2.87$  9.68$  13.2$
  Q  -1.3290  3.56$  9.65$  12.74$
  Q  0.6645  8.67$  18.46$  18.18$
  Q  0.6645  7.56$  19.14$  19.01$
  Q  -1.3290  8.27$  19.12$  18.52$
  Q  0.6645  18.85$  5.87$  11.3$
  Q  0.6645  18.25$  6.06$  9.9$
  Q  -1.3290  18.25$  6.08$  10.74$
  Q  0.6645  4.5$  3.18$  16.83$
  Q  0.6645  5.02$  4.58$  16.47$
  Q  -1.3290  4.41$  3.98$  16.64$
  Q  0.6645  17.19$  16.45$  7.56$
  Q  0.6645  17.02$  17.69$  6.85$
  Q  -1.3290  17.43$  17.16$  7.36$
  Q  0.6645  7.04$  15.38$  6.57$
  Q  0.6645  7.46$  14.87$  5.09$
  Q  -1.3290  7.08$  14.83$  5.9$
  Q  0.6645  13.7$  16.05$  19.13$
  Q  0.6645  12.91$  14.77$  19.58$
  Q  -1.3290  12.98$  15.57$  19.31$
  Q  0.6645  16.48$  5.77$  11.41$
  Q  0.6645  15.06$  6.08$  12.22$
  Q  -1.3290  15.66$  5.67$  11.74$
  Q  0.6645  15.62$  14.94$  19.98$
  Q  0.6645  14.84$  14.16$  18.89$
  Q  -1.3290  15.53$  14.5$  19.24$
  Q  0.6645  5.19$  9.36$  14.21$
  Q  0.6645  6.25$  9.86$  15.31$
  Q  -1.3290  5.91$  9.3$  14.7$
  Q  0.6645  15.14$  7.75$  17.55$
  Q  0.6645  15.49$  8.33$  19.02$
  Q  -1.3290  15.32$  8.36$  18.14$
  Q  0.6645  0.81$  9.31$  12.34$
  Q  0.6645  0.12$  9.8$  13.75$
  Q  -1.3290  0.74$  9.54$  13.2$
  Q  0.6645  12.85$  3.67$  13.44$
  Q  0.6645  14.19$  4.35$  13.49$
  Q  -1.3290  13.58$  3.88$  13.81$
  Q  0.6645  8.22$  15.87$  20.66$
  Q  0.6645  9.46$  15.01$  20.45$
  Q  -1.3290  8.77$  15.45$  20.19$
  Q  0.6645  4.7$  17.73$  12.8$
  Q  0.6645  5.7$  17.91$  11.79$
  Q  -1.3290  5.24$  17.44$  12.28$
  Q  0.6645  8.25$  13.41$  16.83$
  Q  0.6645  9.3$  13.42$  15.68$
  Q  -1.3290  8.66$  13.11$  16.16$
  Q  0.6645  15.17$  4.5$  10.39$
  Q  0.6645  14.07$  3.64$  9.51$
  Q  -1.3290  14.73$  4.2$  9.68$
  Q  0.6645  8.48$  1.2$  8.86$
  Q  0.6645  7.02$  1.3$  9.37$
  Q  -1.3290  7.75$  1.61$  9.07$
  Q  0.6645  8.94$  9.34$  16.64$
  Q  0.6645  8.87$  10.79$  16.3$
  Q  -1.3290  9.25$  10.05$  16.35$
  Q  0.6645  5.32$  19.46$  7.22$
  Q  0.6645  3.9$  18.87$  7.34$
  Q  -1.3290  4.75$  18.87$  7.42$
  Q  0.6645  12.19$  18.59$  5.03$
  Q  0.6645  13.07$  17.75$  6.02$
  Q  -1.3290  12.48$  18.31$  5.8$
  Q  0.6645  13.49$  5.47$  5.77$
  Q  0.6645  14.48$  4.48$  4.99$
  Q  -1.3290  13.75$  4.72$  5.38$
  Q  0.6645  4.23$  6.49$  7.21$
  Q  0.6645  5.31$  5.49$  7.76$
  Q  -1.3290  4.73$  5.81$  7.21$
  Q  0.6645  11.73$  2.1$  5.03$
  Q  0.6645  13.06$  2.78$  5.28$
  Q  -1.3290  12.55$  2.1$  5.15$
  Q  0.6645  19.04$  11.11$  8.28$
  Q  0.6645  17.97$  11.46$  7.31$
  Q  -1.3290  18.38$  10.94$  7.78$
  Q  0.6645  18.4$  13.84$  6.52$
  Q  0.6645  19.27$  15.04$  6.86$
  Q  -1.3290  19.01$  14.24$  6.96$
  Q  0.6645  14.19$  17.17$  10.92$
  Q  0.6645  14.82$  18.33$  11.73$
  Q  -1.3290  14.81$  17.68$  11.14$
  Q  0.6645  7.95$  0.89$  16.91$
  Q  0.6645  6.61$  1.3$  17.34$
  Q  -1.3290  7.23$  1.28$  16.8$
  Q  0.6645  5.31$  16.16$  16.59$
  Q  0.6645  5.59$  16.92$  17.87$
  Q  -1.3290  5.77$  16.37$  17.25$
  Q  0.6645  10.05$  20.37$  10.71$
  Q  0.6645  9.26$  21.15$  9.68$
  Q  -1.3290  9.33$  20.62$  10.36$
  Q  0.6645  1.9$  12.7$  10.17$
  Q  0.6645  2$  13.9$  9.11$
  Q  -1.3290  1.67$  13.16$  9.5$
  Q  0.6645  3.96$  3.92$  6.92$
  Q  0.6645  4.94$  2.87$  6.74$
  Q  -1.3290  4.15$  3.14$  6.85$
  Q  0.6645  14.77$  18.55$  9.56$
  Q  0.6645  14.5$  19.63$  8.51$
  Q  -1.3290  14.35$  18.9$  8.88$
  Q  0.6645  20.22$  16.23$  9.84$
  Q  0.6645  19.25$  16.8$  10.89$
  Q  -1.3290  19.94$  16.83$  10.35$
  Q  0.6645  11.78$  15.37$  17.36$
  Q  0.6645  10.46$  16.13$  16.93$
  Q  -1.3290  11.29$  15.87$  16.86$
  Q  0.6645  6.87$  4.07$  18.06$
  Q  0.6645  7.1$  3.34$  16.82$
  Q  -1.3290  6.96$  4.01$  17.24$
  Q  0.6645  7.97$  17.81$  3.79$
  Q  0.6645  6.53$  17.8$  3.88$
  Q  -1.3290  7.22$  17.78$  3.45$
  Q  0.6645  12.16$  16.72$  1.53$
  Q  0.6645  11.99$  16$  2.89$
  Q  -1.3290  11.81$  16.2$  2.08$
  Q  0.6645  18.44$  8.44$  4.63$
  Q  0.6645  18.33$  8.68$  3.13$
  Q  -1.3290  18.69$  8.4$  3.81$
  Q  0.6645  13.26$  19.04$  15.12$
  Q  0.6645  14.15$  20.34$  15.2$
  Q  -1.3290  13.46$  19.81$  15.35$
  Q  0.6645  5.12$  11.94$  16.23$
  Q  0.6645  6.2$  11.89$  17.28$
  Q  -1.3290  5.62$  11.53$  16.77$
  Q  0.6645  14.32$  14.24$  15.76$
  Q  0.6645  13.28$  13.19$  15.36$
  Q  -1.3290  13.9$  13.57$  15.85$
  Q  0.6645  18.72$  16.13$  14.06$
  Q  0.6645  17.73$  15.62$  15.19$
  Q  -1.3290  17.96$  15.96$  14.43$
  Q  0.6645  8.96$  19.46$  6.5$
  Q  0.6645  9.54$  20.34$  5.21$
  Q  -1.3290  8.96$  20.08$  5.84$
  Q  0.6645  3$  13.67$  11.9$
  Q  0.6645  2.34$  12.71$  12.73$
  Q  -1.3290  2.62$  12.98$  12.03$
  Q  0.6645  10.69$  6.96$  21.99$
  Q  0.6645  11.38$  7.21$  20.57$
  Q  -1.3290  10.73$  7.08$  21.12$
  Q  0.6645  10.28$  2.64$  13.84$
  Q  0.6645  10.99$  1.42$  14.53$
  Q  -1.3290  10.9$  2.05$  13.97$
  Q  0.6645  1.36$  6.82$  15.56$
  Q  0.6645  0.76$  7.91$  14.5$
  Q  -1.3290  1.2$  7.21$  14.83$
  Q  0.6645  6.02$  9.91$  3.42$
  Q  0.6645  7.51$  9.6$  2.95$
  Q  -1.3290  6.88$  9.84$  3.49$
  Q  0.6645  21.7$  13.92$  9.99$
  Q  0.6645  20.6$  14.23$  11.18$
  Q  -1.3290  20.9$  14.14$  10.36$
  Q  0.6645  17.21$  17.22$  11.64$
  Q  0.6645  17.71$  16.13$  12.45$
  Q  -1.3290  17.71$  16.59$  11.77$
  Q  0.6645  14.93$  16.23$  7.19$
  Q  0.6645  14.57$  17.72$  7.37$
  Q  -1.3290  14.85$  17.03$  6.92$
  Q  0.6645  2.48$  6.4$  11.07$
  Q  0.6645  1.34$  5.67$  10.32$
  Q  -1.3290  1.67$  6.3$  10.78$
  Q  0.6645  6.05$  22.14$  6.4$
  Q  0.6645  6.94$  21$  6.12$
  Q  -1.3290  6.32$  21.36$  6.52$
  Q  0.6645  3.36$  17.85$  14.65$
  Q  0.6645  4.12$  19.2$  14.91$
  Q  -1.3290  3.89$  18.53$  14.48$
  Q  0.6645  3.3$  4.3$  15.12$
  Q  0.6645  2.58$  5.52$  14.44$
  Q  -1.3290  2.74$  4.69$  14.62$
  Q  0.6645  2.44$  16.41$  11.22$
  Q  0.6645  3.96$  16.25$  11.29$
  Q  -1.3290  3.18$  16.01$  11.09$
  Q  0.6645  11.67$  10.1$  18.92$
  Q  0.6645  10.47$  10.59$  19.76$
  Q  -1.3290  11.27$  10.55$  19.53$
  Q  0.6645  17.92$  10.85$  13.04$
  Q  0.6645  19.1$  11.05$  12.02$
  Q  -1.3290  18.63$  11.23$  12.72$
  Q  0.6645  18.68$  14.87$  4.04$
  Q  0.6645  17.26$  14.45$  3.51$
  Q  -1.3290  17.92$  14.48$  4.05$
  Q  0.6645  15.16$  17.71$  16.03$
  Q  0.6645  16.17$  16.91$  16.83$
  Q  -1.3290  15.88$  17.53$  16.33$
  Q  0.6645  12.41$  2.08$  8.86$
  Q  0.6645  11.79$  3.45$  9.54$
  Q  -1.3290  12.36$  2.78$  9.41$
  Q  0.6645  0.74$  12.2$  6.66$
  Q  0.6645  1.63$  12.15$  7.86$
  Q  -1.3290  1.41$  11.95$  7.08$
  Q  0.6645  9.87$  11.07$  0.69$
  Q  0.6645  9.88$  12.04$  1.92$
  Q  -1.3290  10.18$  11.46$  1.41$
*
