! NoMOPrint PrintBasis #MINIPRINT SMALLPRINT LARGEPRINT
! ALLPOP XYZFILE
#! BP86 3-21G   TightSCF
! ENGRAD
! B3LYP NormalPNO PModel #DecontractAux
#! VerySlowConv 
 %maxcore 5000
 %scf  maxiter   500  end 

%pal
    nprocs 32
end

%basis
    NewGTO O    # New basis for oxygen
        "aug-cc-pVTZ"
    end
    NewGTO C    # New basis for carbon
        "aug-cc-pVTZ"
    end
    NewGTO H    # New basis for hydrogen
        "cc-pVTZ"
    end
end

* xyz 0   1
  C  12.41  11.02  11.87  #1
  H  13.04  10.18  12.32  #2
  H  11.57  11.09  12.57  #3
  C  12.03  10.84  10.43  #4
  H  11.7  11.78  9.89  #5
  H  12.96  10.45  9.9  #6
  C  10.92  9.78  10.27  #7
  H  11.32  8.78  10.25  #8
  H  10.43  9.85  9.23  #9
  C  9.76  9.75  11.3  #10
  H  10.18  9.38  12.31  #11
  H  8.98  9.12  10.94  #12
  O  9.19  11.08  11.4  #13
  H  8.55  11.05  12.14  #14
  O  13.24  12.23  12.02  #15
  H  12.69  13.02  11.76  #16
  O  6.98  11.1  13.95  #17
  H  6.79  11.79  13.27  #18
  H  6.28  10.47  14.1  #19
  O  11.16  6.93  8.53  #20
  H  11.69  7.63  8.05  #21
  H  11.17  6.15  7.96  #22
  O  13.42  12.19  15.1  #23
  H  13.36  12.57  14.23  #24
  H  12.69  11.55  15.22  #25
  O  11.57  9.99  15.35  #26
  H  10.75  10.5  15.46  #27
  H  11.25  9.28  14.78  #28
  O  7.18  13.88  12.83  #29
  H  8.14  13.9  12.81  #30
  H  6.91  13.92  11.92  #31
  O  15.84  11.18  12.18  #32
  H  14.92  11.46  12.2  #33
  H  16.29  12.07  12.13  #34
  O  9.57  13.76  14.08  #35
  H  9.33  13.74  14.98  #36
  H  10.25  14.42  14.23  #37
  O  12.88  8.9  7.87  #38
  H  13.57  8.33  7.63  #39
  H  12.93  9.7  7.35  #40
  O  12.64  5.54  10.33  #41
  H  12.45  6.2  9.65  #42
  H  13.18  5.9  11.04  #43
  O  13.86  14.15  17.26  #44
  H  14.47  13.65  17.87  #45
  H  13.65  13.6  16.48  #46
  O  8.31  5.24  8.06  #47
  H  7.99  4.4  7.8  #48
  H  9.27  5.05  8.1  #49
  O  13.52  9.92  17.32  #50
  H  12.86  9.68  16.65  #51
  H  13.06  9.79  18.19  #52
  O  11.29  7.08  14.97  #53
  H  10.74  6.89  15.74  #54
  H  10.8  6.54  14.33  #55
  O  8.72  11.13  16.03  #56
  H  8.69  10.35  16.6  #57
  H  8.05  11.23  15.37  #58
  O  11.08  4.74  7.24  #59
  H  11.39  3.88  7.55  #60
  H  11.29  4.81  6.29  #61
  O  11.49  13.6  7.58  #62
  H  11.82  14.46  7.88  #63
  H  10.81  13.39  8.27  #64
  O  12.74  14.94  11.71  #65
  H  13.47  14.8  11.11  #66
  H  13.18  15.08  12.56  #67
  O  10.31  15.24  10.24  #68
  H  11.23  14.91  10.47  #69
  H  9.73  14.49  10.04  #70
  O  6.37  14.95  10.2  #71
  H  5.92  15.22  9.38  #72
  H  6.22  15.63  10.83  #73
  O  4.65  11.97  16.3  #74
  H  4.55  11.9  17.25  #75
  H  4.97  11.12  15.99  #76
  O  5.45  9.21  15.52  #77
  H  5.81  8.78  16.29  #78
  H  4.67  8.69  15.33  #79
  O  16.07  10.86  15.22  #80
  H  16  10.94  14.28  #81
  H  15.24  11.3  15.41  #82
  O  6.39  8.83  9.39  #83
  H  5.59  9.3  9.08  #84
  H  6.12  8.56  10.32  #85
  O  9.36  6.2  10.76  #86
  H  9.87  6.69  10.14  #87
  H  8.87  5.63  10.17  #88
  O  8.65  8.74  7.67  #89
  H  9.3  8.14  7.97  #90
  H  7.89  8.63  8.27  #91
  O  9.32  12.85  9.45  #92
  H  8.52  12.54  9.02  #93
  H  9.39  12.16  10.11  #94
  O  5.9  14.21  15.16  #95
  H  5.38  13.48  15.49  #96
  H  6.48  13.84  14.42  #97
  Q  0.6645  11.31$  12.94$  2.35$
  Q  0.6645  11.57$  13.4$  3.76$
  Q  -1.3290  11.79$  13.14$  3.01$
  Q  0.6645  15.02$  14.6$  14.44$
  Q  0.6645  14.75$  16.12$  14.14$
  Q  -1.3290  14.55$  15.3$  14.25$
  Q  0.6645  6.97$  17.35$  14.69$
  Q  0.6645  8.06$  17.17$  13.58$
  Q  -1.3290  7.76$  17.44$  14.33$
  Q  0.6645  15.64$  2.93$  8.62$
  Q  0.6645  16.85$  2.35$  7.98$
  Q  -1.3290  16.21$  2.36$  8.56$
  Q  0.6645  13.44$  10.73$  1.89$
  Q  0.6645  12.64$  10.35$  3.21$
  Q  -1.3290  13.06$  10.19$  2.49$
  Q  0.6645  2.68$  16.09$  7.3$
  Q  0.6645  1.89$  15.04$  8.08$
  Q  -1.3290  2.18$  15.81$  7.92$
  Q  0.6645  12.64$  15.35$  15.03$
  Q  0.6645  11.59$  16.22$  15.79$
  Q  -1.3290  11.86$  15.64$  15.23$
  Q  0.6645  16.49$  8.54$  18.22$
  Q  0.6645  15.07$  8.85$  17.73$
  Q  -1.3290  15.74$  8.38$  17.84$
  Q  0.6645  9.68$  2.75$  5.98$
  Q  0.6645  10.91$  2.35$  5.18$
  Q  -1.3290  10.37$  2.33$  5.85$
  Q  0.6645  14.02$  5.73$  15.57$
  Q  0.6645  12.81$  6.38$  14.79$
  Q  -1.3290  13.43$  5.8$  14.94$
  Q  0.6645  3.41$  9.67$  8.13$
  Q  0.6645  4.28$  9.85$  6.85$
  Q  -1.3290  4.14$  9.67$  7.67$
  Q  0.6645  11.73$  1.57$  7.52$
  Q  0.6645  13.09$  1.24$  8.18$
  Q  -1.3290  12.33$  1.6$  8.13$
  Q  0.6645  8.47$  12.21$  19.99$
  Q  0.6645  9.15$  11.52$  21.08$
  Q  -1.3290  8.57$  11.57$  20.5$
  Q  0.6645  15.7$  6.35$  17.6$
  Q  0.6645  15.96$  4.78$  17.15$
  Q  -1.3290  15.52$  5.51$  17.42$
  Q  0.6645  12.89$  2.42$  14.91$
  Q  0.6645  12.74$  3.99$  14.98$
  Q  -1.3290  12.52$  3.16$  15.14$
  Q  0.6645  4.43$  12.9$  10.9$
  Q  0.6645  5.79$  12.37$  10.14$
  Q  -1.3290  4.93$  12.38$  10.42$
  Q  0.6645  17.79$  14.43$  18.26$
  Q  0.6645  18.66$  14.97$  17.13$
  Q  -1.3290  17.98$  14.61$  17.45$
  Q  0.6645  1.33$  10.24$  16.52$
  Q  0.6645  0.34$  9.5$  15.63$
  Q  -1.3290  0.92$  10.07$  15.79$
  Q  0.6645  4.57$  15.27$  17.44$
  Q  0.6645  5.98$  15$  17.02$
  Q  -1.3290  5.41$  15.23$  17.57$
  Q  0.6645  17.05$  9.68$  6.62$
  Q  0.6645  17.58$  8.67$  7.57$
  Q  -1.3290  17$  9.19$  7.24$
  Q  0.6645  14.6$  17.43$  17.49$
  Q  0.6645  14.45$  15.88$  17.61$
  Q  -1.3290  14.81$  16.65$  17.73$
  Q  0.6645  4.89$  16.35$  14.93$
  Q  0.6645  4.43$  17.92$  15.07$
  Q  -1.3290  4.97$  17.23$  14.94$
  Q  0.6645  9.68$  5.84$  12.38$
  Q  0.6645  9.47$  4.69$  13.53$
  Q  -1.3290  9.61$  5.5$  13.18$
  Q  0.6645  2.27$  8.55$  3.77$
  Q  0.6645  2.58$  7.77$  5.1$
  Q  -1.3290  2.06$  8.14$  4.53$
  Q  0.6645  9.41$  5.3$  4.72$
  Q  0.6645  10.19$  6.02$  3.76$
  Q  -1.3290  10.07$  5.38$  4.27$
  Q  0.6645  15.63$  5.12$  12.41$
  Q  0.6645  16.73$  4.81$  11.45$
  Q  -1.3290  16.24$  4.62$  12.08$
  Q  0.6645  11.44$  2.85$  2.63$
  Q  0.6645  10.92$  3.81$  3.56$
  Q  -1.3290  11.42$  3.16$  3.37$
  Q  0.6645  17.87$  4.52$  9.58$
  Q  0.6645  16.44$  5.09$  9.59$
  Q  -1.3290  17.24$  5.05$  9.8$
  Q  0.6645  9.33$  8.98$  18.9$
  Q  0.6645  8.58$  10.19$  19.26$
  Q  -1.3290  8.88$  9.63$  18.72$
  Q  0.6645  -0.06$  10.42$  12.13$
  Q  0.6645  1.43$  9.79$  12.18$
  Q  -1.3290  0.71$  10.16$  11.84$
  Q  0.6645  7.46$  2.29$  6.39$
  Q  0.6645  7.24$  3.3$  5.41$
  Q  -1.3290  7.61$  3.01$  6.07$
  Q  0.6645  8.28$  16.35$  15.83$
  Q  0.6645  8.45$  15.48$  17.18$
  Q  -1.3290  8.25$  16.16$  16.67$
  Q  0.6645  20.67$  10.24$  8.73$
  Q  0.6645  21.17$  10.59$  7.35$
  Q  -1.3290  21.06$  10.72$  8.16$
  Q  0.6645  4.24$  10.81$  11.39$
  Q  0.6645  3.33$  10.8$  12.76$
  Q  -1.3290  3.72$  10.51$  12.01$
  Q  0.6645  14.48$  18.75$  9.94$
  Q  0.6645  15.05$  19.87$  10.66$
  Q  -1.3290  15.06$  19.1$  10.4$
  Q  0.6645  11.61$  20.68$  8.02$
  Q  0.6645  10.8$  20.67$  9.22$
  Q  -1.3290  10.91$  20.6$  8.4$
  Q  0.6645  15.17$  2.95$  11.77$
  Q  0.6645  13.71$  2.75$  11.52$
  Q  -1.3290  14.45$  2.52$  11.75$
  Q  0.6645  17.79$  5$  13.29$
  Q  0.6645  19.01$  4.6$  14.32$
  Q  -1.3290  18.34$  5.05$  14$
  Q  0.6645  7.92$  2.33$  17.12$
  Q  0.6645  9.4$  2.69$  17.32$
  Q  -1.3290  8.73$  2.46$  16.89$
  Q  0.6645  7.13$  8.93$  18.19$
  Q  0.6645  6.39$  8.04$  18.98$
  Q  -1.3290  6.51$  8.45$  18.28$
  Q  0.6645  12.42$  12.29$  7$
  Q  0.6645  13.87$  11.86$  6.8$
  Q  -1.3290  13.05$  11.75$  6.67$
  Q  0.6645  13.61$  16.2$  7.26$
  Q  0.6645  12.21$  16.7$  6.83$
  Q  -1.3290  12.77$  16.38$  7.37$
  Q  0.6645  3.59$  13.01$  19.43$
  Q  0.6645  3.88$  11.68$  20.12$
  Q  -1.3290  3.85$  12.22$  19.47$
  Q  0.6645  6.97$  0.67$  13.91$
  Q  0.6645  7.81$  1.63$  13.16$
  Q  -1.3290  7.11$  1.31$  13.41$
  Q  0.6645  17.37$  11.43$  16.08$
  Q  0.6645  17.72$  12.85$  16.8$
  Q  -1.3290  17.7$  11.98$  16.65$
  Q  0.6645  7.16$  4.73$  16.52$
  Q  0.6645  6.67$  4.75$  18.01$
  Q  -1.3290  7.24$  4.83$  17.35$
  Q  0.6645  6.43$  14.52$  19.23$
  Q  0.6645  7.43$  14.32$  20.4$
  Q  -1.3290  7.02$  14.1$  19.68$
  Q  0.6645  19.63$  10.34$  13.13$
  Q  0.6645  19.82$  11.29$  11.85$
  Q  -1.3290  19.99$  10.94$  12.64$
  Q  0.6645  19.87$  7$  6.85$
  Q  0.6645  19.36$  8.12$  6.09$
  Q  -1.3290  19.36$  7.64$  6.75$
  Q  0.6645  10.4$  10.95$  4.17$
  Q  0.6645  11.64$  10.81$  5.27$
  Q  -1.3290  11.1$  10.59$  4.62$
  Q  0.6645  4.1$  6.35$  6.3$
  Q  0.6645  4.54$  7.66$  7$
  Q  -1.3290  4.26$  7.18$  6.33$
  Q  0.6645  8.74$  13.64$  5.32$
  Q  0.6645  10.16$  13.43$  6.08$
  Q  -1.3290  9.6$  13.59$  5.42$
  Q  0.6645  10.3$  2.77$  13.45$
  Q  0.6645  9.53$  2.71$  14.79$
  Q  -1.3290  9.6$  2.77$  13.94$
  Q  0.6645  16.43$  21.71$  13.33$
  Q  0.6645  16.5$  20.27$  13.84$
  Q  -1.3290  16.63$  20.91$  13.3$
  Q  0.6645  11.97$  9.55$  1.13$
  Q  0.6645  11.69$  9.75$  -0.44$
  Q  -1.3290  11.49$  9.64$  0.41$
  Q  0.6645  5.25$  11.14$  4.64$
  Q  0.6645  4.94$  12.26$  5.89$
  Q  -1.3290  4.85$  11.83$  5.09$
  Q  0.6645  10.67$  16.76$  5.4$
  Q  0.6645  10.04$  15.51$  4.85$
  Q  -1.3290  10.51$  16.2$  4.78$
  Q  0.6645  11.58$  6.22$  0.74$
  Q  0.6645  11.1$  7.72$  0.84$
  Q  -1.3290  11.02$  6.88$  0.69$
  Q  0.6645  1.11$  12.07$  10.67$
  Q  0.6645  1.83$  13.56$  10.63$
  Q  -1.3290  1.18$  12.95$  10.49$
  Q  0.6645  11.63$  2.71$  17$
  Q  0.6645  11.44$  1.87$  18.2$
  Q  -1.3290  11.46$  2.6$  17.85$
  Q  0.6645  12.97$  18.41$  11.29$
  Q  0.6645  11.58$  17.95$  12.06$
  Q  -1.3290  12.28$  18.45$  11.86$
  Q  0.6645  12.58$  19.19$  16.97$
  Q  0.6645  12.95$  18.81$  18.39$
  Q  -1.3290  13.1$  19.15$  17.63$
  Q  0.6645  4.77$  6.15$  3.38$
  Q  0.6645  3.3$  5.95$  2.83$
  Q  -1.3290  4.08$  6.35$  2.92$
  Q  0.6645  8.81$  6.7$  0.86$
  Q  0.6645  7.5$  7.12$  1.48$
  Q  -1.3290  7.99$  6.75$  0.92$
  Q  0.6645  17.46$  18.79$  5.82$
  Q  0.6645  17.93$  17.6$  6.43$
  Q  -1.3290  17.8$  18.08$  5.8$
  Q  0.6645  13.32$  19.3$  5.93$
  Q  0.6645  13.09$  20.77$  6.18$
  Q  -1.3290  12.93$  19.96$  6.27$
  Q  0.6645  12.91$  21.39$  10.87$
  Q  0.6645  14.07$  22.43$  11.18$
  Q  -1.3290  13.72$  21.67$  10.93$
  Q  0.6645  16.71$  10.64$  8.79$
  Q  0.6645  16.04$  11.11$  10.12$
  Q  -1.3290  16.49$  11.18$  9.39$
  Q  0.6645  16.26$  11.97$  18.1$
  Q  0.6645  14.79$  11.49$  17.78$
  Q  -1.3290  15.44$  11.8$  18.24$
  Q  0.6645  5.84$  17.67$  16.83$
  Q  0.6645  6.38$  19.15$  17.36$
  Q  -1.3290  5.83$  18.44$  17.3$
  Q  0.6645  13.02$  3.61$  18.88$
  Q  0.6645  14.23$  4.46$  18.61$
  Q  -1.3290  13.7$  4.04$  19.11$
  Q  0.6645  3.63$  5.24$  12.88$
  Q  0.6645  2.78$  5.25$  11.41$
  Q  -1.3290  3.35$  5.48$  12.05$
  Q  0.6645  15.16$  6.85$  5.63$
  Q  0.6645  15.68$  7.25$  4.16$
  Q  -1.3290  15.42$  6.69$  4.79$
  Q  0.6645  11.01$  16.38$  13.28$
  Q  0.6645  10.41$  16.02$  11.93$
  Q  -1.3290  10.5$  16.51$  12.61$
  Q  0.6645  18.27$  12.19$  10.18$
  Q  0.6645  19.34$  13.19$  10.31$
  Q  -1.3290  18.98$  12.45$  10.48$
  Q  0.6645  1.96$  10.24$  9.91$
  Q  0.6645  1.14$  10.18$  8.68$
  Q  -1.3290  1.83$  10.23$  9.09$
  Q  0.6645  8.8$  13.54$  1.27$
  Q  0.6645  7.31$  13.75$  1.32$
  Q  -1.3290  8.08$  13.81$  1.62$
  Q  0.6645  15.4$  17.56$  12.16$
  Q  0.6645  15.44$  18.3$  13.46$
  Q  -1.3290  15.47$  17.6$  12.99$
  Q  0.6645  4.55$  8.72$  12.11$
  Q  0.6645  4.28$  7.17$  11.91$
  Q  -1.3290  4.79$  7.92$  11.98$
  Q  0.6645  16.04$  18.56$  15.83$
  Q  0.6645  14.8$  19.4$  15.09$
  Q  -1.3290  15.62$  19.21$  15.4$
  Q  0.6645  19.61$  12.97$  13.67$
  Q  0.6645  19.69$  13.14$  15.12$
  Q  -1.3290  19.48$  13.38$  14.36$
  Q  0.6645  15.57$  7.98$  7.57$
  Q  0.6645  15.03$  6.46$  7.87$
  Q  -1.3290  15.04$  7.26$  7.51$
  Q  0.6645  17.68$  18.45$  17.24$
  Q  0.6645  16.9$  17.09$  17.46$
  Q  -1.3290  17.36$  17.68$  17.03$
  Q  0.6645  11.77$  2.42$  10.18$
  Q  0.6645  11.75$  3.89$  10.67$
  Q  -1.3290  11.6$  3.07$  10.67$
  Q  0.6645  3.33$  0.77$  8.19$
  Q  0.6645  4.1$  2.16$  8.28$
  Q  -1.3290  3.82$  1.44$  7.89$
  Q  0.6645  15.47$  14.82$  1.86$
  Q  0.6645  14.98$  13.38$  1.43$
  Q  -1.3290  15.43$  13.99$  1.9$
  Q  0.6645  15.28$  18.42$  4.88$
  Q  0.6645  14.87$  17.32$  5.68$
  Q  -1.3290  14.72$  17.97$  5.24$
  Q  0.6645  10.49$  20.54$  15.47$
  Q  0.6645  11.78$  20.29$  14.66$
  Q  -1.3290  11.06$  20.08$  15.09$
  Q  0.6645  13.67$  2.7$  6.47$
  Q  0.6645  15.1$  3.01$  5.99$
  Q  -1.3290  14.34$  3.19$  6.36$
  Q  0.6645  6.45$  4.81$  14.21$
  Q  0.6645  7.06$  3.42$  14.55$
  Q  -1.3290  6.62$  4.12$  14.7$
  Q  0.6645  17.46$  13.94$  14.61$
  Q  0.6645  16.64$  14.71$  15.8$
  Q  -1.3290  16.77$  14.26$  15.05$
  Q  0.6645  13.38$  3.96$  3.63$
  Q  0.6645  14.51$  4.8$  4.17$
  Q  -1.3290  14.2$  4.18$  3.69$
  Q  0.6645  21.19$  6.53$  11.52$
  Q  0.6645  20.58$  6.33$  12.81$
  Q  -1.3290  21.15$  6.2$  12.26$
  Q  0.6645  6.77$  14.95$  3.99$
  Q  0.6645  5.93$  13.96$  4.81$
  Q  -1.3290  6.58$  14.47$  4.65$
  Q  0.6645  13.6$  17.73$  3.75$
  Q  0.6645  12.13$  17.28$  3.5$
  Q  -1.3290  12.85$  17.64$  3.32$
  Q  0.6645  2.08$  6.97$  7.25$
  Q  0.6645  1.64$  5.99$  8.32$
  Q  -1.3290  1.59$  6.71$  7.85$
  Q  0.6645  18.04$  6.73$  10.33$
  Q  0.6645  19.26$  7.73$  10.31$
  Q  -1.3290  18.51$  7.4$  10.59$
  Q  0.6645  20.32$  7.91$  14.45$
  Q  0.6645  21.06$  7.49$  15.8$
  Q  -1.3290  20.97$  7.77$  14.99$
  Q  0.6645  19.47$  16.41$  13.48$
  Q  0.6645  20.14$  15.06$  13.77$
  Q  -1.3290  20.04$  15.79$  13.34$
  Q  0.6645  6.66$  8.99$  2.94$
  Q  0.6645  6.92$  9.26$  1.41$
  Q  -1.3290  7.16$  9.09$  2.24$
  Q  0.6645  7.06$  11.67$  7.37$
  Q  0.6645  6.18$  12.75$  8.1$
  Q  -1.3290  6.8$  12.16$  8.02$
  Q  0.6645  15.08$  14.14$  9.04$
  Q  0.6645  15.41$  13.97$  10.52$
  Q  -1.3290  15.1$  14.4$  9.86$
  Q  0.6645  16.31$  17.63$  9.89$
  Q  0.6645  16.08$  16.06$  10.02$
  Q  -1.3290  16.5$  16.82$  9.99$
  Q  0.6645  17.75$  16.09$  8.39$
  Q  0.6645  18.4$  15.28$  7.34$
  Q  -1.3290  18.02$  15.95$  7.62$
  Q  0.6645  18$  8.39$  13.45$
  Q  0.6645  19.04$  8.26$  12.35$
  Q  -1.3290  18.75$  8.54$  13.09$
  Q  0.6645  13.62$  20.95$  13.84$
  Q  0.6645  13.22$  19.54$  13.22$
  Q  -1.3290  13.46$  20.11$  13.84$
  Q  0.6645  2.91$  6.06$  16.02$
  Q  0.6645  3.16$  4.62$  15.44$
  Q  -1.3290  2.81$  5.22$  15.97$
  Q  0.6645  8.43$  11.12$  5.3$
  Q  0.6645  8.52$  10.15$  6.41$
  Q  -1.3290  8.13$  10.69$  5.94$
  Q  0.6645  6.93$  0.39$  8.53$
  Q  0.6645  8.29$  0.54$  7.85$
  Q  -1.3290  7.56$  0.8$  8.2$
  Q  0.6645  20.56$  14$  7.76$
  Q  0.6645  20.36$  12.66$  8.37$
  Q  -1.3290  20.09$  13.34$  7.98$
  Q  0.6645  6.5$  9.65$  5.25$
  Q  0.6645  5.18$  8.91$  4.84$
  Q  -1.3290  5.84$  9.46$  4.76$
  Q  0.6645  3.13$  11.9$  15.01$
  Q  0.6645  1.92$  11.14$  14.62$
  Q  -1.3290  2.59$  11.61$  14.47$
  Q  0.6645  8.87$  17.17$  19.44$
  Q  0.6645  7.74$  17.32$  18.38$
  Q  -1.3290  8.18$  17.5$  19.12$
  Q  0.6645  6.15$  6.68$  12.83$
  Q  0.6645  7.63$  6.4$  13.22$
  Q  -1.3290  6.81$  6.23$  13.09$
  Q  0.6645  13.73$  12.82$  4.84$
  Q  0.6645  14.39$  13.57$  3.76$
  Q  -1.3290  14.27$  13.35$  4.55$
  Q  0.6645  19.91$  6.55$  17.67$
  Q  0.6645  18.98$  7.33$  16.72$
  Q  -1.3290  19.65$  7.23$  17.22$
  Q  0.6645  16.92$  13.1$  3.09$
  Q  0.6645  18.4$  13.25$  3$
  Q  -1.3290  17.7$  12.93$  3.28$
  Q  0.6645  4.54$  2.38$  10.51$
  Q  0.6645  5.31$  3.67$  10.19$
  Q  -1.3290  4.85$  3$  10.01$
  Q  0.6645  14.45$  1.72$  13.66$
  Q  0.6645  14.99$  1.31$  15.01$
  Q  -1.3290  14.42$  1.38$  14.4$
  Q  0.6645  8.45$  16.24$  1.92$
  Q  0.6645  9.83$  16.15$  2.46$
  Q  -1.3290  9.26$  16.47$  1.97$
  Q  0.6645  4.39$  12.7$  8.57$
  Q  0.6645  3.36$  13.15$  7.56$
  Q  -1.3290  4.14$  13.09$  7.88$
  Q  0.6645  11.24$  20$  11.55$
  Q  0.6645  10.2$  21.04$  11.31$
  Q  -1.3290  10.92$  20.69$  11.18$
  Q  0.6645  16.53$  2.23$  16.79$
  Q  0.6645  17.03$  2.88$  15.48$
  Q  -1.3290  16.91$  2.82$  16.3$
  Q  0.6645  5.6$  7.17$  9.24$
  Q  0.6645  6.14$  5.76$  9.12$
  Q  -1.3290  5.59$  6.36$  8.98$
  Q  0.6645  15.29$  10.5$  19.89$
  Q  0.6645  14.65$  9.14$  20.31$
  Q  -1.3290  15.02$  9.91$  20.42$
  Q  0.6645  3.53$  3.04$  13.91$
  Q  0.6645  4.75$  3.65$  14.77$
  Q  -1.3290  4.05$  3.66$  14.26$
  Q  0.6645  2.64$  10.93$  18.65$
  Q  0.6645  1.74$  9.79$  18.91$
  Q  -1.3290  1.98$  10.44$  18.49$
  Q  0.6645  4.14$  0.26$  12.64$
  Q  0.6645  5.24$  1.17$  12.34$
  Q  -1.3290  4.61$  0.65$  12.11$
  Q  0.6645  13.73$  4.79$  9.37$
  Q  0.6645  14.23$  4.42$  7.9$
  Q  -1.3290  14.29$  4.73$  8.71$
  Q  0.6645  17.52$  14.23$  11.47$
  Q  0.6645  16.79$  14.45$  12.72$
  Q  -1.3290  16.9$  14.13$  11.98$
  Q  0.6645  6.92$  5.14$  11.55$
  Q  0.6645  7.22$  3.63$  10.95$
  Q  -1.3290  6.84$  4.46$  11.02$
  Q  0.6645  7.9$  22.02$  11.24$
  Q  0.6645  7.77$  20.57$  10.67$
  Q  -1.3290  8.06$  21.19$  11.19$
  Q  0.6645  10.58$  16.91$  18.24$
  Q  0.6645  11.47$  16.77$  19.39$
  Q  -1.3290  10.86$  16.53$  18.91$
  Q  0.6645  2.56$  7.95$  14.74$
  Q  0.6645  2.75$  8.85$  15.99$
  Q  -1.3290  2.84$  8.15$  15.54$
  Q  0.6645  8.66$  12.37$  2.88$
  Q  0.6645  8.45$  10.83$  2.8$
  Q  -1.3290  8.74$  11.57$  3.12$
  Q  0.6645  8.27$  2.04$  9.64$
  Q  0.6645  9.33$  2.83$  10.64$
  Q  -1.3290  8.57$  2.42$  10.38$
  Q  0.6645  4.86$  17.35$  11.12$
  Q  0.6645  5.38$  17.89$  12.51$
  Q  -1.3290  5.43$  17.54$  11.74$
  Q  0.6645  7.25$  19.44$  14.3$
  Q  0.6645  7.1$  20.43$  13.16$
  Q  -1.3290  7.1$  20.21$  13.95$
  Q  0.6645  7.1$  16.46$  7.43$
  Q  0.6645  6.57$  15.3$  6.61$
  Q  -1.3290  6.53$  15.92$  7.17$
  Q  0.6645  6.2$  19.68$  9.55$
  Q  0.6645  6.25$  18.48$  10.51$
  Q  -1.3290  6.6$  19.04$  9.95$
  Q  0.6645  5.46$  4.36$  5.24$
  Q  0.6645  6.72$  5.14$  4.63$
  Q  -1.3290  6.04$  4.59$  4.64$
  Q  0.6645  16.43$  9.27$  11.85$
  Q  0.6645  17.06$  8.07$  11.39$
  Q  -1.3290  16.48$  8.48$  11.82$
  Q  0.6645  12.36$  14.33$  21.99$
  Q  0.6645  12.22$  13.89$  20.44$
  Q  -1.3290  12.23$  13.8$  21.29$
  Q  0.6645  20.44$  16.23$  17.45$
  Q  0.6645  19.15$  16.87$  16.63$
  Q  -1.3290  19.97$  16.53$  16.78$
  Q  0.6645  9.2$  8.39$  3.11$
  Q  0.6645  10.49$  8.58$  3.83$
  Q  -1.3290  9.87$  8.13$  3.55$
  Q  0.6645  11.87$  18.75$  9.25$
  Q  0.6645  12.65$  17.9$  8.47$
  Q  -1.3290  12.6$  18.49$  9$
  Q  0.6645  17.2$  5.86$  4.96$
  Q  0.6645  18.46$  6.13$  5.84$
  Q  -1.3290  17.9$  5.65$  5.43$
  Q  0.6645  14.15$  6.46$  13.11$
  Q  0.6645  15$  7.22$  12.09$
  Q  -1.3290  14.49$  6.6$  12.36$
  Q  0.6645  10.87$  4.75$  17.55$
  Q  0.6645  9.33$  5.27$  17.38$
  Q  -1.3290  10.21$  5.32$  17.46$
  Q  0.6645  20.17$  10.71$  2.55$
  Q  0.6645  19.1$  10.06$  3.5$
  Q  -1.3290  19.88$  10.29$  3.24$
  Q  0.6645  10.36$  6.88$  18.78$
  Q  0.6645  10.6$  7.31$  20.31$
  Q  -1.3290  10.43$  7.42$  19.43$
  Q  0.6645  14.7$  9.12$  2.78$
  Q  0.6645  15.81$  8.28$  1.94$
  Q  -1.3290  15.45$  8.67$  2.64$
  Q  0.6645  10.89$  12.74$  0.3$
  Q  0.6645  10.66$  11.31$  1.01$
  Q  -1.3290  10.5$  12.14$  0.78$
  Q  0.6645  1.7$  7.05$  12.37$
  Q  0.6645  0.75$  7.43$  13.47$
  Q  -1.3290  1.45$  7.53$  13.02$
  Q  0.6645  13.68$  7.4$  19.74$
  Q  0.6645  13.69$  6.85$  21.18$
  Q  -1.3290  13.97$  7.34$  20.53$
  Q  0.6645  21.87$  7.93$  9.34$
  Q  0.6645  21.66$  8.89$  10.56$
  Q  -1.3290  21.43$  8.3$  9.98$
  Q  0.6645  1.49$  13$  8.52$
  Q  0.6645  1.35$  12.71$  6.91$
  Q  -1.3290  1.55$  13.14$  7.65$
  Q  0.6645  10.67$  18.96$  6.92$
  Q  0.6645  9.66$  17.89$  6.97$
  Q  -1.3290  10.36$  18.2$  6.75$
  Q  0.6645  16.18$  15.94$  6.61$
  Q  0.6645  14.91$  15.03$  6.21$
  Q  -1.3290  15.32$  15.73$  6.51$
  Q  0.6645  8.94$  12.81$  16.86$
  Q  0.6645  8.47$  13.65$  18.1$
  Q  -1.3290  8.91$  13.49$  17.37$
  Q  0.6645  3.26$  4.21$  9.38$
  Q  0.6645  3.55$  5.76$  9.33$
  Q  -1.3290  3.14$  5.03$  9.13$
  Q  0.6645  11.76$  11.07$  19.42$
  Q  0.6645  11.1$  9.71$  19.17$
  Q  -1.3290  11.67$  10.24$  19.52$
  Q  0.6645  12.16$  13.59$  18.23$
  Q  0.6645  10.69$  13.34$  18.3$
  Q  -1.3290  11.49$  13.19$  18.51$
  Q  0.6645  17.8$  6.44$  15.23$
  Q  0.6645  16.75$  7.51$  15.81$
  Q  -1.3290  17.51$  7.16$  15.58$
  Q  0.6645  3.4$  4.4$  6.24$
  Q  0.6645  4.45$  4.8$  7.31$
  Q  -1.3290  4.14$  4.57$  6.54$
  Q  0.6645  19.91$  11.39$  15.98$
  Q  0.6645  21.34$  11.47$  15.63$
  Q  -1.3290  20.64$  11.77$  15.96$
  Q  0.6645  2.86$  17.89$  10.78$
  Q  0.6645  2.93$  16.9$  9.56$
  Q  -1.3290  3.13$  17.21$  10.33$
  Q  0.6645  10.57$  18.45$  16.02$
  Q  0.6645  9.62$  17.53$  16.67$
  Q  -1.3290  10.38$  17.85$  16.56$
  Q  0.6645  8.07$  18.03$  8.94$
  Q  0.6645  9.15$  17$  8.9$
  Q  -1.3290  8.6$  17.5$  8.57$
  Q  0.6645  8.03$  6.33$  6.26$
  Q  0.6645  8.36$  7.14$  5.12$
  Q  -1.3290  8.1$  6.48$  5.44$
  Q  0.6645  18.82$  9.04$  18.12$
  Q  0.6645  18.22$  10.37$  18.12$
  Q  -1.3290  18.28$  9.61$  18.39$
  Q  0.6645  15.96$  12.69$  6.8$
  Q  0.6645  15.75$  12.06$  8.18$
  Q  -1.3290  15.51$  12.56$  7.51$
  Q  0.6645  17.66$  2.6$  13.21$
  Q  0.6645  18.08$  1.19$  13.11$
  Q  -1.3290  17.6$  1.8$  13.39$
  Q  0.6645  18.55$  12.64$  6.78$
  Q  0.6645  18.04$  12.68$  5.31$
  Q  -1.3290  17.96$  12.65$  6.16$
  Q  0.6645  5.32$  19.12$  6.76$
  Q  0.6645  5.68$  18.07$  7.79$
  Q  -1.3290  5.17$  18.62$  7.42$
  Q  0.6645  18.29$  18.08$  14.29$
  Q  0.6645  17.14$  17.26$  13.58$
  Q  -1.3290  17.95$  17.46$  13.84$
  Q  0.6645  0.46$  13.86$  12.52$
  Q  0.6645  1.41$  13.3$  13.66$
  Q  -1.3290  0.97$  13.9$  13.21$
  Q  0.6645  17.29$  3.75$  5.99$
  Q  0.6645  18.13$  2.51$  5.77$
  Q  -1.3290  17.44$  2.95$  6.08$
  Q  0.6645  2.68$  14.2$  12.28$
  Q  0.6645  3.31$  15.17$  11.29$
  Q  -1.3290  3.16$  14.4$  11.64$
  Q  0.6645  2.54$  16.55$  14.93$
  Q  0.6645  1.89$  15.23$  14.42$
  Q  -1.3290  2.35$  15.73$  14.96$
  Q  0.6645  16.48$  9.69$  3.97$
  Q  0.6645  17.25$  10.99$  4.28$
  Q  -1.3290  17.1$  10.14$  4.32$
  Q  0.6645  19.46$  15.61$  11.41$
  Q  0.6645  18.26$  16.35$  10.81$
  Q  -1.3290  18.83$  15.71$  10.87$
  Q  0.6645  12.7$  15.11$  2.31$
  Q  0.6645  12.87$  16.31$  1.34$
  Q  -1.3290  12.62$  15.53$  1.57$
*
