! NoMOPrint PrintBasis #MINIPRINT SMALLPRINT LARGEPRINT
! ALLPOP XYZFILE
#! BP86 3-21G   TightSCF
! ENGRAD
! B3LYP NormalPNO PModel #DecontractAux
#! VerySlowConv 
 %maxcore 5000
 %scf  maxiter   500  end 

%pal
    nprocs 32
end

%basis
    NewGTO O    # New basis for oxygen
        "aug-cc-pVTZ"
    end
    NewGTO C    # New basis for carbon
        "aug-cc-pVTZ"
    end
    NewGTO H    # New basis for hydrogen
        "cc-pVTZ"
    end
end

* xyz 0   1
  C  11.58  13.18  11.28  #1
  H  10.97  13.63  10.45  #2
  H  12.52  13.73  11.36  #3
  C  11.83  11.71  11.12  #4
  H  12.32  11.45  10.22  #5
  H  12.52  11.33  11.9  #6
  C  10.54  10.82  11.23  #7
  H  9.59  11.41  11.14  #8
  H  10.52  10.5  12.28  #9
  C  10.43  9.67  10.33  #10
  H  11.37  9.11  10.5  #11
  H  10.33  9.77  9.26  #12
  O  9.38  8.86  10.75  #13
  H  9.26  8.06  10.24  #14
  O  10.93  13.43  12.52  #15
  H  9.97  13.53  12.37  #16
  O  12.06  9.33  14.09  #17
  H  11.88  8.68  13.38  #18
  H  12.38  8.71  14.75  #19
  O  8.1  13.96  11.67  #20
  H  7.47  13.79  10.94  #21
  H  8.4  14.93  11.49  #22
  O  13.8  11.71  7.87  #23
  H  12.87  12.1  7.65  #24
  H  13.74  11.05  8.6  #25
  O  12.79  15.3  13.5  #26
  H  13.65  15.01  13.08  #27
  H  12.17  14.64  13.25  #28
  O  14.53  9.94  10.16  #29
  H  15.1  10.66  10.51  #30
  H  15.03  9.57  9.44  #31
  O  12.75  17.77  11.93  #32
  H  12.88  16.87  12.43  #33
  H  13.66  18.06  11.82  #34
  O  14.65  14.18  7.47  #35
  H  14.39  14.28  6.6  #36
  H  14.35  13.25  7.65  #37
  O  7.81  8.83  13.22  #38
  H  8.33  8.93  12.4  #39
  H  8.25  9.05  14.05  #40
  O  9.22  6.6  9.16  #41
  H  9.79  5.92  9.61  #42
  H  8.39  6.17  9.11  #43
  O  7.56  14.71  7.99  #44
  H  8.22  15.42  8.28  #45
  H  6.9  14.63  8.7  #46
  O  11.82  9.57  6.32  #47
  H  11.1  9.87  5.79  #48
  H  11.63  8.74  6.8  #49
  O  15.1  14.45  12.56  #50
  H  15.33  13.96  13.39  #51
  H  15.89  15.04  12.52  #52
  O  9.29  16.4  10.99  #53
  H  9.35  17.05  11.72  #54
  H  8.86  16.95  10.3  #55
  O  11.49  7.07  7.72  #56
  H  11.75  6.35  7.09  #57
  H  10.71  6.84  8.2  #58
  O  15.51  8.18  11.86  #59
  H  14.99  7.39  12  #60
  H  15.02  8.7  11.25  #61
  O  11.3  12.91  7.34  #62
  H  10.92  13.17  6.5  #63
  H  11.22  13.67  7.9  #64
  O  16.33  8.7  8.28  #65
  H  16.08  8.6  7.35  #66
  H  17.05  9.3  8.32  #67
  O  12.18  6.34  12.58  #68
  H  11.97  6.09  11.67  #69
  H  11.5  5.88  13.07  #70
  O  9.49  9.27  15.44  #71
  H  9.35  9.41  16.41  #72
  H  10.36  8.84  15.39  #73
  O  14.92  10.28  13.8  #74
  H  14.02  10.26  13.7  #75
  H  15.2  9.46  13.36  #76
  O  5.73  14.09  9.97  #77
  H  5.41  13.27  10.42  #78
  H  5.32  14.74  10.63  #79
  O  13.02  16.7  15.44  #80
  H  12.44  17.46  15.3  #81
  H  12.91  16  14.76  #82
  O  10.6  12.02  14.9  #83
  H  10.67  11.07  15.02  #84
  H  10.93  12.31  14.05  #85
  O  16.14  12.03  11.17  #86
  H  16.05  12.53  10.3  #87
  H  15.95  12.72  11.85  #88
  O  14.31  11.73  5.31  #89
  H  14  11.43  6.2  #90
  H  15.07  11.2  5.3  #91
  O  8.5  12.28  8.33  #92
  H  8.38  13.19  8.14  #93
  H  9.43  12.1  8.21  #94
  O  11.64  6.84  15.89  #95
  H  11.67  5.92  15.56  #96
  H  12.03  6.87  16.85  #97
  Q  0.6645  16.24$  14.55$  8.79$
  Q  0.6645  17.46$  14$  9.66$
  Q  -1.3290  16.76$  13.97$  9.13$
  Q  0.6645  4.54$  11.61$  8.77$
  Q  0.6645  4.13$  11.52$  7.22$
  Q  -1.3290  4.65$  11.54$  7.92$
  Q  0.6645  2.47$  8.31$  9.43$
  Q  0.6645  3.68$  8.67$  8.58$
  Q  -1.3290  3.3$  8.47$  9.28$
  Q  0.6645  7.54$  15.66$  14.31$
  Q  0.6645  7.3$  14.16$  14.15$
  Q  -1.3290  7.49$  14.88$  14.57$
  Q  0.6645  14.56$  12.32$  15.5$
  Q  0.6645  15.29$  11.9$  14.31$
  Q  -1.3290  15.13$  12.41$  14.91$
  Q  0.6645  13.81$  11.19$  17.88$
  Q  0.6645  14.3$  11.6$  19.27$
  Q  -1.3290  14.08$  11.03$  18.67$
  Q  0.6645  9.32$  1.14$  6.94$
  Q  0.6645  9.42$  2.02$  5.77$
  Q  -1.3290  9.69$  1.7$  6.48$
  Q  0.6645  9.58$  5.64$  14.55$
  Q  0.6645  9.44$  4.98$  13.14$
  Q  -1.3290  9.82$  5.17$  13.88$
  Q  0.6645  11.77$  13.48$  19.07$
  Q  0.6645  11.99$  14.87$  18.51$
  Q  -1.3290  12.26$  14.12$  18.79$
  Q  0.6645  4.64$  6.83$  13.98$
  Q  0.6645  4.37$  8.19$  13.3$
  Q  -1.3290  4.18$  7.5$  13.73$
  Q  0.6645  15.57$  21.6$  8.97$
  Q  0.6645  14.12$  21.38$  9.36$
  Q  -1.3290  14.92$  21.46$  9.49$
  Q  0.6645  13.75$  11.98$  2.17$
  Q  0.6645  13.29$  11.77$  3.59$
  Q  -1.3290  13.22$  11.76$  2.75$
  Q  0.6645  19.07$  8.61$  13.07$
  Q  0.6645  20.49$  8.98$  13.49$
  Q  -1.3290  19.67$  8.96$  13.59$
  Q  0.6645  16.54$  4.27$  4.63$
  Q  0.6645  17.17$  4.8$  5.99$
  Q  -1.3290  16.56$  4.52$  5.46$
  Q  0.6645  3.36$  14.28$  7.81$
  Q  0.6645  3.84$  14.06$  9.28$
  Q  -1.3290  3.27$  14.13$  8.63$
  Q  0.6645  17.37$  12.52$  5.82$
  Q  0.6645  17.01$  12.66$  7.37$
  Q  -1.3290  17.47$  12.46$  6.69$
  Q  0.6645  14.72$  1.58$  9.01$
  Q  0.6645  13.7$  2.44$  8.17$
  Q  -1.3290  14.46$  2.09$  8.37$
  Q  0.6645  7.33$  10.74$  14.33$
  Q  0.6645  5.95$  11.08$  14.79$
  Q  -1.3290  6.78$  11.18$  14.72$
  Q  0.6645  13.83$  7.44$  18.15$
  Q  0.6645  12.58$  8.07$  18.8$
  Q  -1.3290  13.03$  7.46$  18.38$
  Q  0.6645  6.15$  9.22$  12.37$
  Q  0.6645  5.44$  8.58$  11.31$
  Q  -1.3290  5.51$  9.11$  11.91$
  Q  0.6645  12.1$  16.87$  19.39$
  Q  0.6645  12.18$  16.84$  20.93$
  Q  -1.3290  12.4$  17.11$  20.16$
  Q  0.6645  12.91$  19.61$  2.23$
  Q  0.6645  12.91$  18.76$  3.49$
  Q  -1.3290  12.55$  19.29$  2.93$
  Q  0.6645  14.26$  17.04$  19.86$
  Q  0.6645  15.68$  17.54$  20.17$
  Q  -1.3290  15.1$  17.07$  19.79$
  Q  0.6645  10.65$  17.4$  4.46$
  Q  0.6645  11.95$  17.43$  5.14$
  Q  -1.3290  11.16$  17.15$  5.06$
  Q  0.6645  10$  4.41$  5.29$
  Q  0.6645  11.12$  3.96$  4.14$
  Q  -1.3290  10.38$  3.95$  4.6$
  Q  0.6645  9.42$  17.95$  16.06$
  Q  0.6645  8.13$  17.18$  16.4$
  Q  -1.3290  8.6$  17.81$  16.05$
  Q  0.6645  2.28$  6.39$  6.01$
  Q  0.6645  2.65$  7.03$  4.66$
  Q  -1.3290  2.14$  6.66$  5.2$
  Q  0.6645  18.87$  7.65$  6.12$
  Q  0.6645  19.24$  9.11$  6.62$
  Q  -1.3290  19.15$  8.46$  6.05$
  Q  0.6645  9.21$  11.3$  5.02$
  Q  0.6645  10.51$  11.8$  4.62$
  Q  -1.3290  9.98$  11.21$  4.73$
  Q  0.6645  17.93$  4.66$  12.68$
  Q  0.6645  18.97$  5.67$  12.93$
  Q  -1.3290  18.26$  5.27$  13.11$
  Q  0.6645  8.95$  6.42$  6.77$
  Q  0.6645  9.59$  6.4$  5.38$
  Q  -1.3290  9.22$  6.04$  6.05$
  Q  0.6645  17.77$  11.18$  16.52$
  Q  0.6645  17.34$  12.53$  17.03$
  Q  -1.3290  17.78$  11.8$  17.05$
  Q  0.6645  18.23$  9.14$  15.35$
  Q  0.6645  16.81$  8.65$  15.65$
  Q  -1.3290  17.52$  9.06$  15.83$
  Q  0.6645  14.04$  20.51$  6.64$
  Q  0.6645  12.59$  20.94$  6.66$
  Q  -1.3290  13.31$  20.71$  6.29$
  Q  0.6645  13.88$  2.53$  15.28$
  Q  0.6645  12.61$  3.2$  15.07$
  Q  -1.3290  13.36$  3.12$  15.42$
  Q  0.6645  15.9$  8.33$  2.37$
  Q  0.6645  16.13$  9.43$  1.19$
  Q  -1.3290  15.71$  8.97$  1.81$
  Q  0.6645  10.48$  20.94$  12.14$
  Q  0.6645  9.29$  20.15$  12.79$
  Q  -1.3290  9.74$  20.86$  12.56$
  Q  0.6645  13.83$  5.98$  13.14$
  Q  0.6645  15.27$  5.85$  13.82$
  Q  -1.3290  14.67$  5.7$  13.24$
  Q  0.6645  5.62$  17.03$  14.17$
  Q  0.6645  5.87$  17.91$  12.96$
  Q  -1.3290  5.99$  17.25$  13.43$
  Q  0.6645  4.31$  3.44$  6.95$
  Q  0.6645  4.16$  4.83$  7.4$
  Q  -1.3290  4.58$  4.17$  7.12$
  Q  0.6645  6.48$  0.45$  13.76$
  Q  0.6645  5.27$  0.54$  14.74$
  Q  -1.3290  5.9$  0.17$  14.31$
  Q  0.6645  8.21$  8.71$  18.43$
  Q  0.6645  9.37$  9.37$  19.05$
  Q  -1.3290  8.91$  9.17$  18.41$
  Q  0.6645  13.82$  16.7$  4.94$
  Q  0.6645  14.48$  18.03$  5.42$
  Q  -1.3290  13.85$  17.56$  5.08$
  Q  0.6645  8.91$  20.47$  7.25$
  Q  0.6645  8.37$  21.13$  6$
  Q  -1.3290  8.41$  20.99$  6.83$
  Q  0.6645  18.33$  2.65$  10.93$
  Q  0.6645  16.86$  3.19$  11.23$
  Q  -1.3290  17.61$  2.86$  11.41$
  Q  0.6645  8.2$  13.42$  17.35$
  Q  0.6645  7.19$  12.27$  16.85$
  Q  -1.3290  7.54$  12.81$  17.4$
  Q  0.6645  1.26$  7.8$  12.17$
  Q  0.6645  2.64$  7.31$  12.36$
  Q  -1.3290  1.84$  7.23$  12.14$
  Q  0.6645  7.34$  6.2$  13.93$
  Q  0.6645  6.21$  5.28$  14.37$
  Q  -1.3290  6.56$  5.9$  13.92$
  Q  0.6645  10.73$  15.96$  6.76$
  Q  0.6645  10.95$  16.24$  8.25$
  Q  -1.3290  10.64$  15.82$  7.58$
  Q  0.6645  0.22$  13.97$  14.21$
  Q  0.6645  1.43$  13.58$  15.14$
  Q  -1.3290  0.94$  13.55$  14.42$
  Q  0.6645  7.87$  11.71$  19.22$
  Q  0.6645  8.05$  10.66$  20.44$
  Q  -1.3290  7.95$  11.43$  20.04$
  Q  0.6645  3.56$  11.85$  11.66$
  Q  0.6645  4.47$  10.77$  11.23$
  Q  -1.3290  4$  11.45$  11.09$
  Q  0.6645  15.22$  15.61$  2.41$
  Q  0.6645  16.23$  16.02$  3.38$
  Q  -1.3290  15.71$  15.48$  3.04$
  Q  0.6645  4.13$  3.84$  14.27$
  Q  0.6645  4.84$  3.31$  15.52$
  Q  -1.3290  4.62$  3.93$  14.95$
  Q  0.6645  7.65$  11.98$  6.59$
  Q  0.6645  6.69$  11.21$  5.7$
  Q  -1.3290  7.32$  11.73$  5.87$
  Q  0.6645  12.59$  9.14$  0.08$
  Q  0.6645  13.51$  9.14$  1.31$
  Q  -1.3290  12.76$  9.03$  0.91$
  Q  0.6645  15.04$  16.38$  17.86$
  Q  0.6645  14.44$  16.56$  16.43$
  Q  -1.3290  15.02$  16.36$  17.01$
  Q  0.6645  13.02$  17.33$  8.71$
  Q  0.6645  12.19$  17.57$  10.03$
  Q  -1.3290  12.32$  17.51$  9.17$
  Q  0.6645  18.76$  13.89$  6.32$
  Q  0.6645  20.21$  14.47$  5.9$
  Q  -1.3290  19.34$  14.52$  6.04$
  Q  0.6645  6.14$  10.23$  2.52$
  Q  0.6645  7.22$  9.06$  2.6$
  Q  -1.3290  6.79$  9.75$  2.88$
  Q  0.6645  7.9$  6.49$  17.64$
  Q  0.6645  6.63$  6.23$  18.52$
  Q  -1.3290  7.41$  6.55$  18.33$
  Q  0.6645  19.44$  11.18$  11.45$
  Q  0.6645  18$  11.51$  11.04$
  Q  -1.3290  18.71$  11.06$  11.01$
  Q  0.6645  3.22$  7$  7.73$
  Q  0.6645  2.15$  5.96$  8.2$
  Q  -1.3290  2.78$  6.25$  7.72$
  Q  0.6645  6.99$  2.88$  16.39$
  Q  0.6645  7.95$  1.84$  15.87$
  Q  -1.3290  7.6$  2.33$  16.44$
  Q  0.6645  13.93$  13.38$  4.94$
  Q  0.6645  14.35$  14.67$  4.21$
  Q  -1.3290  13.9$  14.22$  4.75$
  Q  0.6645  2.07$  3.77$  12.96$
  Q  0.6645  3.39$  3.68$  12.29$
  Q  -1.3290  2.86$  3.5$  12.9$
  Q  0.6645  7.62$  4.1$  11.44$
  Q  0.6645  8.29$  2.81$  12.21$
  Q  -1.3290  8.21$  3.64$  11.89$
  Q  0.6645  18.57$  11.01$  7.66$
  Q  0.6645  18.87$  10.52$  9.09$
  Q  -1.3290  18.76$  10.45$  8.27$
  Q  0.6645  4.66$  16.83$  16.32$
  Q  0.6645  3.62$  17.56$  15.42$
  Q  -1.3290  4.21$  16.98$  15.58$
  Q  0.6645  13.52$  21.24$  15.13$
  Q  0.6645  12.29$  21.21$  16.01$
  Q  -1.3290  12.75$  21.02$  15.33$
  Q  0.6645  19.15$  19.42$  9.26$
  Q  0.6645  18.01$  18.29$  9.51$
  Q  -1.3290  18.72$  18.67$  9.16$
  Q  0.6645  20.95$  12.25$  12.78$
  Q  0.6645  20.18$  11.07$  13.44$
  Q  -1.3290  20.28$  11.86$  13.14$
  Q  0.6645  4.28$  12.33$  15.41$
  Q  0.6645  3.77$  11.02$  16.11$
  Q  -1.3290  4.02$  11.51$  15.47$
  Q  0.6645  8.3$  0.5$  12.4$
  Q  0.6645  7.07$  0.89$  11.56$
  Q  -1.3290  7.62$  0.97$  12.17$
  Q  0.6645  14.49$  15.75$  8.47$
  Q  0.6645  15.44$  16.83$  9.23$
  Q  -1.3290  14.82$  16.54$  8.68$
  Q  0.6645  1.32$  15.71$  12.57$
  Q  0.6645  2.5$  15.32$  11.51$
  Q  -1.3290  1.71$  15.47$  11.85$
  Q  0.6645  16.06$  13.6$  16.03$
  Q  0.6645  16.14$  14.83$  16.95$
  Q  -1.3290  16.45$  14.13$  16.61$
  Q  0.6645  16.69$  20.11$  7.41$
  Q  0.6645  17.65$  21.48$  7.33$
  Q  -1.3290  16.94$  20.97$  7.47$
  Q  0.6645  12.45$  5.51$  2.89$
  Q  0.6645  13.03$  4.08$  3.11$
  Q  -1.3290  12.6$  4.8$  3.3$
  Q  0.6645  9.02$  17.99$  8.42$
  Q  0.6645  7.56$  18.11$  8.46$
  Q  -1.3290  8.29$  17.84$  8.74$
  Q  0.6645  5.14$  15.52$  18.17$
  Q  0.6645  4.84$  16.81$  18.67$
  Q  -1.3290  5.18$  16.31$  18.13$
  Q  0.6645  14.51$  7.93$  5.44$
  Q  0.6645  15.77$  7.1$  5.57$
  Q  -1.3290  15.08$  7.48$  5.87$
  Q  0.6645  10.87$  12.35$  20.93$
  Q  0.6645  9.71$  11.63$  20.25$
  Q  -1.3290  10.49$  11.97$  20.29$
  Q  0.6645  3.16$  11.81$  5$
  Q  0.6645  2.07$  11.35$  6.04$
  Q  -1.3290  2.72$  11.25$  5.49$
  Q  0.6645  11.79$  12.51$  1.58$
  Q  0.6645  11.16$  13.88$  0.92$
  Q  -1.3290  11.28$  13.04$  1.09$
  Q  0.6645  10.15$  10.16$  2.86$
  Q  0.6645  11.04$  9.73$  1.7$
  Q  -1.3290  10.29$  9.88$  2.09$
  Q  0.6645  18.13$  16.35$  5.07$
  Q  0.6645  17.86$  17.7$  4.33$
  Q  -1.3290  17.66$  16.96$  4.71$
  Q  0.6645  14.05$  13.66$  20.02$
  Q  0.6645  15.27$  12.78$  20.66$
  Q  -1.3290  14.45$  13.02$  20.46$
  Q  0.6645  9.94$  14.46$  4.32$
  Q  0.6645  11.46$  14.62$  4.73$
  Q  -1.3290  10.66$  14.27$  4.73$
  Q  0.6645  6.09$  14.31$  15.96$
  Q  0.6645  4.66$  14.82$  15.76$
  Q  -1.3290  5.23$  14.25$  15.95$
  Q  0.6645  10.37$  7.94$  3.38$
  Q  0.6645  11.49$  7.43$  4.09$
  Q  -1.3290  10.72$  7.45$  3.93$
  Q  0.6645  13.71$  2.1$  11.77$
  Q  0.6645  12.29$  2.1$  12.52$
  Q  -1.3290  13.05$  1.79$  12.28$
  Q  0.6645  12.18$  12.48$  16.09$
  Q  0.6645  12.83$  13.13$  17.31$
  Q  -1.3290  12.81$  12.67$  16.62$
  Q  0.6645  18.21$  8.31$  17.52$
  Q  0.6645  19.32$  8.15$  18.6$
  Q  -1.3290  18.62$  7.92$  18.16$
  Q  0.6645  8.37$  17.03$  18.61$
  Q  0.6645  7.22$  16.12$  18.08$
  Q  -1.3290  8.03$  16.34$  18.27$
  Q  0.6645  8.12$  6.73$  2.22$
  Q  0.6645  7.9$  7.41$  0.9$
  Q  -1.3290  7.86$  7.34$  1.72$
  Q  0.6645  4.25$  13.24$  3.5$
  Q  0.6645  4.04$  13.96$  4.9$
  Q  -1.3290  3.85$  13.42$  4.21$
  Q  0.6645  7.57$  4.09$  7.84$
  Q  0.6645  6.48$  4.94$  8.39$
  Q  -1.3290  7.22$  4.57$  8.4$
  Q  0.6645  8.85$  -0.28$  15.62$
  Q  0.6645  9.53$  -0.09$  14.16$
  Q  -1.3290  9.31$  0.12$  14.98$
  Q  0.6645  14.32$  19.16$  15.74$
  Q  0.6645  15.76$  18.51$  15.69$
  Q  -1.3290  15.16$  19.09$  15.53$
  Q  0.6645  5.73$  13.52$  20.4$
  Q  0.6645  6.15$  13.32$  18.92$
  Q  -1.3290  5.65$  13.59$  19.56$
  Q  0.6645  14.48$  3.99$  10.27$
  Q  0.6645  14.46$  3.94$  11.84$
  Q  -1.3290  14.66$  3.66$  11.04$
  Q  0.6645  17.01$  4.14$  16.25$
  Q  0.6645  15.42$  4.16$  16.12$
  Q  -1.3290  16.19$  4.38$  16.44$
  Q  0.6645  13.29$  0.55$  5.06$
  Q  0.6645  13.31$  2.09$  5.26$
  Q  -1.3290  13.12$  1.35$  4.88$
  Q  0.6645  17.24$  14.07$  3.19$
  Q  0.6645  18.13$  13.16$  2.55$
  Q  -1.3290  17.57$  13.36$  3.16$
  Q  0.6645  15.69$  19.84$  12.08$
  Q  0.6645  14.8$  20.1$  10.93$
  Q  -1.3290  15.02$  19.7$  11.64$
  Q  0.6645  17.01$  4.65$  8.5$
  Q  0.6645  16.38$  3.24$  8.52$
  Q  -1.3290  17.01$  3.81$  8.54$
  Q  0.6645  11.18$  18.72$  7.87$
  Q  0.6645  10.38$  18$  6.75$
  Q  -1.3290  10.51$  18.57$  7.36$
  Q  0.6645  12.96$  9.72$  19.82$
  Q  0.6645  11.41$  9.83$  19.9$
  Q  -1.3290  12.18$  9.46$  20.01$
  Q  0.6645  4.81$  8.51$  4.34$
  Q  0.6645  4.33$  7.58$  3.12$
  Q  -1.3290  4.24$  8.04$  3.83$
  Q  0.6645  16.9$  7.12$  8.91$
  Q  0.6645  17.03$  6.6$  10.3$
  Q  -1.3290  16.91$  6.51$  9.46$
  Q  0.6645  8.78$  15.29$  19.46$
  Q  0.6645  9.1$  13.86$  20.02$
  Q  -1.3290  9.04$  14.72$  20.04$
  Q  0.6645  7.34$  8.81$  4.84$
  Q  0.6645  7.29$  9.01$  6.42$
  Q  -1.3290  7.16$  8.62$  5.66$
  Q  0.6645  6.36$  2.85$  9.25$
  Q  0.6645  5.94$  1.45$  8.98$
  Q  -1.3290  6.14$  2.1$  9.46$
  Q  0.6645  2.53$  6.93$  14.63$
  Q  0.6645  2.24$  5.84$  15.7$
  Q  -1.3290  2.02$  6.43$  15.14$
  Q  0.6645  13.02$  9$  3.56$
  Q  0.6645  12.81$  9.15$  5.12$
  Q  -1.3290  13.16$  8.83$  4.35$
  Q  0.6645  9.43$  9.58$  22.03$
  Q  0.6645  9.28$  8.45$  21.07$
  Q  -1.3290  9.28$  9.26$  21.26$
  Q  0.6645  4.21$  3.9$  2.81$
  Q  0.6645  5.25$  5.03$  3.14$
  Q  -1.3290  4.58$  4.67$  2.73$
  Q  0.6645  19.45$  16.94$  8.7$
  Q  0.6645  19.59$  15.58$  7.96$
  Q  -1.3290  19.67$  16.11$  8.61$
  Q  0.6645  8.55$  13.59$  2.89$
  Q  0.6645  7.78$  14.53$  3.84$
  Q  -1.3290  8.39$  14.33$  3.28$
  Q  0.6645  2.04$  12.58$  13.28$
  Q  0.6645  2.83$  11.51$  13.95$
  Q  -1.3290  2.54$  11.92$  13.25$
  Q  0.6645  11.94$  21.05$  9.41$
  Q  0.6645  11.63$  22.35$  8.62$
  Q  -1.3290  11.92$  21.58$  8.74$
  Q  0.6645  6.42$  8.06$  8.77$
  Q  0.6645  5.29$  7.46$  9.47$
  Q  -1.3290  6.08$  7.51$  9.29$
  Q  0.6645  10.69$  1.79$  14.78$
  Q  0.6645  10.53$  3.23$  14.15$
  Q  -1.3290  10.9$  2.48$  14.32$
  Q  0.6645  19.83$  15.08$  14.5$
  Q  0.6645  21.24$  15.97$  14.74$
  Q  -1.3290  20.67$  15.28$  14.71$
  Q  0.6645  17.11$  11.54$  3.72$
  Q  0.6645  15.9$  10.54$  3.5$
  Q  -1.3290  16.59$  10.86$  3.89$
  Q  0.6645  1.29$  10.33$  13.16$
  Q  0.6645  1.18$  9.27$  14.14$
  Q  -1.3290  0.97$  9.64$  13.45$
  Q  0.6645  4.33$  2.83$  10.32$
  Q  0.6645  4.65$  4.26$  10.79$
  Q  -1.3290  4.16$  3.59$  10.62$
  Q  0.6645  3.64$  19.22$  9.36$
  Q  0.6645  3.27$  17.92$  8.48$
  Q  -1.3290  3.78$  18.44$  8.98$
  Q  0.6645  7.59$  10.66$  8.32$
  Q  0.6645  6.22$  10.37$  7.8$
  Q  -1.3290  7.02$  10.16$  7.97$
  Q  0.6645  9.07$  3.45$  17.54$
  Q  0.6645  9.91$  4.53$  18.31$
  Q  -1.3290  9.73$  4.04$  17.64$
  Q  0.6645  2.35$  11.1$  10.03$
  Q  0.6645  1.25$  9.99$  10$
  Q  -1.3290  1.54$  10.82$  9.96$
  Q  0.6645  9.35$  4.76$  2.99$
  Q  0.6645  10.11$  5.45$  1.79$
  Q  -1.3290  9.44$  5.09$  2.21$
  Q  0.6645  7.79$  18.14$  13.07$
  Q  0.6645  9.18$  18.47$  13.72$
  Q  -1.3290  8.59$  18.43$  13.11$
  Q  0.6645  2.4$  4.72$  9.9$
  Q  0.6645  1.48$  5.63$  10.8$
  Q  -1.3290  1.68$  5.09$  10.17$
  Q  0.6645  4.6$  16.92$  10.39$
  Q  0.6645  4.98$  16.5$  11.95$
  Q  -1.3290  4.69$  16.42$  11.1$
  Q  0.6645  11.98$  5.97$  0.24$
  Q  0.6645  11.59$  7.24$  1.22$
  Q  -1.3290  11.78$  6.42$  0.97$
  Q  0.6645  18.09$  17.58$  15.86$
  Q  0.6645  17.05$  16.59$  15.82$
  Q  -1.3290  17.49$  17.17$  15.5$
  Q  0.6645  13.27$  6.07$  8.77$
  Q  0.6645  14.76$  6.1$  9.21$
  Q  -1.3290  13.91$  5.98$  9.29$
  Q  0.6645  10.02$  3.98$  10.6$
  Q  0.6645  11.35$  4.03$  9.77$
  Q  -1.3290  10.72$  4.35$  10.27$
  Q  0.6645  11.51$  19.68$  14.44$
  Q  0.6645  11.66$  18.34$  13.63$
  Q  -1.3290  11.37$  18.83$  14.24$
  Q  0.6645  8.73$  2.68$  3.55$
  Q  0.6645  7.36$  3.19$  4.06$
  Q  -1.3290  7.91$  2.59$  3.85$
  Q  0.6645  16.04$  18.1$  10.97$
  Q  0.6645  16.98$  16.87$  11$
  Q  -1.3290  16.59$  17.54$  10.64$
  Q  0.6645  17.3$  12.09$  18.93$
  Q  0.6645  17.42$  12.94$  20.18$
  Q  -1.3290  17.24$  12.24$  19.75$
  Q  0.6645  15.7$  17.74$  7.36$
  Q  0.6645  16.43$  17.87$  6$
  Q  -1.3290  15.96$  18.14$  6.64$
  Q  0.6645  16.96$  16.75$  13.5$
  Q  0.6645  17.8$  15.58$  13.12$
  Q  -1.3290  17.24$  16.17$  12.96$
  Q  0.6645  18.69$  13.11$  13.85$
  Q  0.6645  17.84$  13.54$  14.92$
  Q  -1.3290  18.29$  13.67$  14.25$
  Q  0.6645  12.6$  5.27$  5.2$
  Q  0.6645  13.76$  5.86$  6.01$
  Q  -1.3290  13.03$  5.46$  5.9$
  Q  0.6645  3.72$  15.96$  6.26$
  Q  0.6645  5.01$  14.94$  6.21$
  Q  -1.3290  4.16$  15.19$  6.13$
  Q  0.6645  17.23$  6.47$  14.51$
  Q  0.6645  16.51$  6.29$  15.84$
  Q  -1.3290  16.63$  6.6$  15.08$
  Q  0.6645  12.69$  19.98$  11.56$
  Q  0.6645  12.72$  21.47$  11.72$
  Q  -1.3290  12.43$  20.75$  11.41$
  Q  0.6645  11.3$  2.56$  7.36$
  Q  0.6645  12.36$  3.67$  7$
  Q  -1.3290  11.99$  3.06$  7.47$
  Q  0.6645  6.75$  20.67$  15.65$
  Q  0.6645  7.57$  19.57$  16.36$
  Q  -1.3290  7.3$  20.37$  16.25$
  Q  0.6645  16.64$  6.56$  3.32$
  Q  0.6645  17.68$  7.5$  4.11$
  Q  -1.3290  16.93$  7.24$  3.81$
  Q  0.6645  9.29$  5.95$  16.48$
  Q  0.6645  9.01$  7.3$  15.94$
  Q  -1.3290  8.87$  6.51$  16.05$
  Q  0.6645  19.56$  13.79$  10.9$
  Q  0.6645  19.35$  15.22$  10.21$
  Q  -1.3290  19.13$  14.48$  10.7$
  Q  0.6645  6$  5.75$  11.96$
  Q  0.6645  6.13$  5.95$  10.53$
  Q  -1.3290  5.86$  5.54$  11.18$
  Q  0.6645  17.3$  8.01$  11.56$
  Q  0.6645  18.12$  9.15$  11.1$
  Q  -1.3290  17.97$  8.35$  11.22$
  Q  0.6645  7.15$  16.49$  5.36$
  Q  0.6645  7.01$  18.02$  5.78$
  Q  -1.3290  7.01$  17.36$  5.25$
  Q  0.6645  16.7$  7.67$  18.75$
  Q  0.6645  15.6$  8.85$  19.13$
  Q  -1.3290  15.96$  8.04$  19.07$
  Q  0.6645  18.73$  19.34$  12.29$
  Q  0.6645  17.68$  18.87$  13.26$
  Q  -1.3290  17.96$  19.31$  12.58$
  Q  0.6645  0.13$  7.67$  9.55$
  Q  0.6645  0.5$  8.37$  8.29$
  Q  -1.3290  0.56$  8.22$  9.11$
  Q  0.6645  3.93$  19.47$  12.74$
  Q  0.6645  5.08$  20.4$  13.13$
  Q  -1.3290  4.69$  19.78$  12.69$
  Q  0.6645  3.63$  8.72$  6.18$
  Q  0.6645  4.92$  8.08$  6.54$
  Q  -1.3290  4.19$  8.4$  6.74$
  Q  0.6645  10.87$  2.64$  17.18$
  Q  0.6645  12.28$  2.53$  16.83$
  Q  -1.3290  11.56$  2.22$  17.09$
  Q  0.6645  11.79$  16.35$  16.85$
  Q  0.6645  10.58$  15.58$  17.31$
  Q  -1.3290  11.18$  16.13$  17.39$
  Q  0.6645  6.35$  19.49$  7.58$
  Q  0.6645  5.47$  18.36$  7.64$
  Q  -1.3290  6.15$  18.73$  7.4$
  Q  0.6645  15.93$  12.81$  2.23$
  Q  0.6645  16.12$  11.57$  1.4$
  Q  -1.3290  15.77$  12.29$  1.59$
  Q  0.6645  9.2$  14.73$  15.92$
  Q  0.6645  9.61$  13.28$  16.17$
  Q  -1.3290  9.49$  14.09$  16.37$
  Q  0.6645  7.11$  14.65$  6.25$
  Q  0.6645  6.95$  13.54$  5.41$
  Q  -1.3290  6.8$  14.31$  5.6$
  Q  0.6645  9.57$  12.13$  1.71$
  Q  0.6645  8.34$  11.19$  1.95$
  Q  -1.3290  8.79$  11.91$  1.95$
  Q  0.6645  20.7$  6.17$  10.73$
  Q  0.6645  19.68$  7.32$  10.37$
  Q  -1.3290  20.37$  6.8$  10.27$
  Q  0.6645  7.19$  5.7$  4.8$
  Q  0.6645  6.08$  4.76$  5.41$
  Q  -1.3290  6.63$  5.04$  4.82$
*
