! NoMOPrint PrintBasis #MINIPRINT SMALLPRINT LARGEPRINT
! ALLPOP XYZFILE
#! BP86 3-21G   TightSCF
! ENGRAD
! B3LYP NormalPNO PModel #DecontractAux
#! VerySlowConv 
 %maxcore 5000
 %scf  maxiter   500  end 

%pal
    nprocs 32
end

%basis
    NewGTO O    # New basis for oxygen
        "aug-cc-pVTZ"
    end
    NewGTO C    # New basis for carbon
        "aug-cc-pVTZ"
    end
    NewGTO H    # New basis for hydrogen
        "cc-pVTZ"
    end
end

* xyz 0   1
  C  10.28  9.83  12.46  #1
  H  9.8  8.87  12.06  #2
  H  9.54  10.57  12.73  #3
  C  11.2  10.45  11.39  #4
  H  11.45  11.42  11.8  #5
  H  12.09  9.86  11.27  #6
  C  10.57  10.5  9.95  #7
  H  9.6  10.95  10  #8
  H  10.32  9.51  9.52  #9
  C  11.43  11.24  8.91  #10
  H  10.98  11.27  7.92  #11
  H  12.36  10.74  8.75  #12
  O  11.71  12.58  9.37  #13
  H  12.22  13.04  8.7  #14
  O  11.06  9.43  13.6  #15
  H  11.48  10.2  13.99  #16
  O  7.56  10.43  8.03  #17
  H  7.92  10.1  7.19  #18
  H  7.56  9.69  8.67  #19
  O  11.2  11.42  5.67  #20
  H  11.96  11.2  5.14  #21
  H  11.24  12.34  5.4  #22
  O  12.28  7.76  8.31  #23
  H  11.73  8.2  7.6  #24
  H  12.11  6.81  8.4  #25
  O  11.53  11.91  14.84  #26
  H  11.19  11.5  15.68  #27
  H  10.96  12.67  14.66  #28
  O  10.75  7.4  15.5  #29
  H  10.88  7.95  14.69  #30
  H  11.62  7.26  15.78  #31
  O  15.55  10.95  8.92  #32
  H  15  10.34  9.38  #33
  H  16.24  11.13  9.57  #34
  O  7.87  9.96  5.13  #35
  H  8.09  9.27  4.51  #36
  H  7.06  10.3  4.65  #37
  O  9.88  4.82  14.8  #38
  H  9.06  5.13  14.35  #39
  H  10.09  5.52  15.45  #40
  O  13.46  6.83  16.15  #41
  H  13.55  6.92  17.12  #42
  H  13.08  5.93  16.03  #43
  O  4.9  10.95  7.31  #44
  H  5.84  10.83  7.6  #45
  H  4.32  11.15  8.04  #46
  O  6.91  11.38  13.75  #47
  H  7.22  11.09  14.65  #48
  H  6.86  10.63  13.12  #49
  O  8.72  6.37  11.16  #50
  H  9.6  6.55  11.52  #51
  H  8.15  6.14  11.95  #52
  O  11.2  6.03  12.19  #53
  H  11.98  6.61  11.99  #54
  H  11.09  6.14  13.14  #55
  O  8.28  13.29  12.42  #56
  H  7.6  13.99  12.2  #57
  H  7.83  12.57  12.94  #58
  O  13.62  4.38  9.66  #59
  H  13.36  4.2  10.61  #60
  H  12.78  4.67  9.3  #61
  O  13.38  8.07  5.35  #62
  H  12.48  8.05  5.61  #63
  H  13.82  7.71  6.1  #64
  O  6.97  8.17  9.89  #65
  H  6.32  7.65  9.36  #66
  H  7.72  7.58  10.17  #67
  O  14.34  8.56  9.77  #68
  H  14.07  8.3  10.66  #69
  H  13.52  8.39  9.29  #70
  O  14.57  8.98  14.73  #71
  H  14.19  9.88  14.77  #72
  H  13.97  8.35  15.09  #73
  O  12.99  14.65  15.15  #74
  H  12.61  13.93  15.75  #75
  H  13.83  14.71  15.59  #76
  O  11.55  12.2  2.64  #77
  H  10.61  12.04  2.84  #78
  H  12.01  11.57  3.13  #79
  O  11.97  14.11  5.07  #80
  H  12.77  14.03  4.51  #81
  H  12.13  14.11  6.06  #82
  O  9.26  13.69  9.77  #83
  H  10.14  13.24  9.77  #84
  H  8.83  13.26  10.53  #85
  O  10.23  14.11  14.26  #86
  H  9.55  13.84  13.61  #87
  H  10.96  14.54  13.79  #88
  O  14.39  11.76  14.31  #89
  H  13.49  12.04  14.46  #90
  H  14.83  11.98  15.12  #91
  O  10.7  8.43  6.36  #92
  H  10.4  9.34  6.15  #93
  H  9.91  7.91  6.35  #94
  O  12.57  14.64  7.83  #95
  H  13.5  14.57  8.1  #96
  H  12.18  15.21  8.55  #97
  O  10.24  9.75  16.97  #98
  H  10.74  9.91  17.78  #99
  H  10.39  8.83  16.69  #100
  O  11.27  5.25  8.47  #101
  H  11.43  4.67  7.68  #102
  H  10.39  5.04  8.85  #103
  O  13.47  10.75  4.21  #104
  H  13.88  10.73  3.32  #105
  H  13.58  9.84  4.54  #106
  Q  0.6645  1.77$  8.46$  15.43$
  Q  0.6645  0.5$  8.05$  14.48$
  Q  -1.3290  0.9$  8.35$  15.19$
  Q  0.6645  12.73$  9.41$  18.81$
  Q  0.6645  12.25$  10.62$  19.51$
  Q  -1.3290  12.59$  10.24$  18.89$
  Q  0.6645  2.26$  4.9$  10.31$
  Q  0.6645  2.35$  3.72$  11.26$
  Q  -1.3290  2.66$  4.3$  10.74$
  Q  0.6645  13.88$  3.14$  18.97$
  Q  0.6645  14.86$  2.09$  18.47$
  Q  -1.3290  14.41$  2.81$  18.41$
  Q  0.6645  20.34$  9.19$  13.31$
  Q  0.6645  18.86$  8.63$  13.25$
  Q  -1.3290  19.71$  8.61$  13.22$
  Q  0.6645  5.65$  11.75$  9.71$
  Q  0.6645  4.9$  10.76$  10.56$
  Q  -1.3290  4.99$  11.47$  10.14$
  Q  0.6645  18.03$  15.48$  11.28$
  Q  0.6645  17.11$  14.27$  11.43$
  Q  -1.3290  17.85$  14.66$  11.34$
  Q  0.6645  11.39$  8.61$  21.22$
  Q  0.6645  10.32$  8.61$  20.2$
  Q  -1.3290  11.09$  8.47$  20.46$
  Q  0.6645  7.21$  16.95$  13.06$
  Q  0.6645  7.57$  17.49$  14.51$
  Q  -1.3290  7.32$  17.51$  13.71$
  Q  0.6645  8.89$  11.49$  4.29$
  Q  0.6645  8.65$  13$  3.99$
  Q  -1.3290  8.73$  12.16$  3.79$
  Q  0.6645  12.55$  13.36$  17.75$
  Q  0.6645  13.75$  13.82$  18.22$
  Q  -1.3290  13.34$  13.46$  17.66$
  Q  0.6645  17.93$  9.93$  6.94$
  Q  0.6645  16.33$  10.08$  7.18$
  Q  -1.3290  17.09$  9.93$  6.76$
  Q  0.6645  1.83$  14.77$  6.66$
  Q  0.6645  2.29$  15.65$  7.77$
  Q  -1.3290  2.4$  15.04$  7.24$
  Q  0.6645  11.89$  18.02$  15.16$
  Q  0.6645  11.81$  16.43$  15.27$
  Q  -1.3290  11.53$  17.24$  15.08$
  Q  0.6645  14.45$  13.62$  11.94$
  Q  0.6645  14.91$  12.67$  12.92$
  Q  -1.3290  15.04$  13.2$  12.32$
  Q  0.6645  11.8$  4.32$  12.11$
  Q  0.6645  11.51$  3.17$  11.17$
  Q  -1.3290  11.96$  3.6$  11.73$
  Q  0.6645  13.29$  1.06$  10.54$
  Q  0.6645  14.31$  0.61$  9.43$
  Q  -1.3290  13.54$  0.69$  9.8$
  Q  0.6645  16.41$  9.43$  13.67$
  Q  0.6645  17.26$  9.9$  12.48$
  Q  -1.3290  17.11$  9.51$  13.23$
  Q  0.6645  6.45$  5.23$  7.03$
  Q  0.6645  6.96$  4.89$  8.43$
  Q  -1.3290  6.37$  5.04$  7.85$
  Q  0.6645  17.91$  9.22$  18.66$
  Q  0.6645  16.27$  9.63$  18.63$
  Q  -1.3290  17.11$  9.47$  18.93$
  Q  0.6645  2.63$  10.6$  11.03$
  Q  0.6645  1.47$  10.88$  12.06$
  Q  -1.3290  2.19$  11.08$  11.6$
  Q  0.6645  19.81$  10.32$  4.88$
  Q  0.6645  19.62$  11.69$  5.71$
  Q  -1.3290  19.96$  10.91$  5.5$
  Q  0.6645  4.07$  6.77$  12.88$
  Q  0.6645  3.36$  7.99$  13.56$
  Q  -1.3290  3.64$  7.5$  12.9$
  Q  0.6645  11.57$  2.17$  6.81$
  Q  0.6645  10.07$  2.69$  6.65$
  Q  -1.3290  10.92$  2.74$  6.78$
  Q  0.6645  13.98$  4.44$  13.28$
  Q  0.6645  15.08$  4.29$  12.31$
  Q  -1.3290  14.62$  4.72$  12.84$
  Q  0.6645  20$  11.63$  9.9$
  Q  0.6645  19.89$  10.09$  10.2$
  Q  -1.3290  19.96$  10.91$  10.41$
  Q  0.6645  16.29$  11.5$  16.98$
  Q  0.6645  17.11$  11.89$  15.7$
  Q  -1.3290  16.61$  12.03$  16.4$
  Q  0.6645  20.42$  9.07$  7.9$
  Q  0.6645  19.79$  10.12$  7.14$
  Q  -1.3290  19.75$  9.52$  7.69$
  Q  0.6645  14$  17.36$  7.26$
  Q  0.6645  14.26$  17.31$  8.72$
  Q  -1.3290  14.23$  17.71$  7.96$
  Q  0.6645  4.14$  12.45$  17.25$
  Q  0.6645  3.11$  11.44$  17.75$
  Q  -1.3290  3.37$  12.19$  17.45$
  Q  0.6645  10.68$  2.28$  9.08$
  Q  0.6645  9.97$  1.5$  10.29$
  Q  -1.3290  10.3$  2.18$  9.89$
  Q  0.6645  16.24$  5.11$  6.02$
  Q  0.6645  16.52$  4.97$  7.38$
  Q  -1.3290  16.7$  4.82$  6.59$
  Q  0.6645  2.62$  14.52$  11.78$
  Q  0.6645  2.06$  13.18$  11.41$
  Q  -1.3290  2.05$  14$  11.44$
  Q  0.6645  18.88$  9.16$  2.77$
  Q  0.6645  18.31$  8.84$  4.04$
  Q  -1.3290  18.79$  9.26$  3.58$
  Q  0.6645  19.16$  13.72$  9.91$
  Q  0.6645  20.42$  13.99$  9.05$
  Q  -1.3290  19.71$  13.58$  9.28$
  Q  0.6645  18.22$  12.9$  17.56$
  Q  0.6645  18.26$  12.9$  19.09$
  Q  -1.3290  18.58$  13.05$  18.32$
  Q  0.6645  21.1$  11.13$  13.44$
  Q  0.6645  20.95$  10.65$  11.97$
  Q  -1.3290  21.34$  10.75$  12.74$
  Q  0.6645  12.47$  0.66$  16.69$
  Q  0.6645  13.01$  2.09$  17.24$
  Q  -1.3290  12.57$  1.54$  16.74$
  Q  0.6645  16.86$  19.98$  12.03$
  Q  0.6645  16$  19.09$  12.97$
  Q  -1.3290  16.15$  19.66$  12.36$
  Q  0.6645  9.41$  20.7$  5.05$
  Q  0.6645  10.95$  20.82$  4.82$
  Q  -1.3290  10.13$  20.86$  4.6$
  Q  0.6645  6.43$  0.08$  8.38$
  Q  0.6645  6.03$  1.35$  9.29$
  Q  -1.3290  6.21$  0.92$  8.55$
  Q  0.6645  5.59$  4.55$  18.5$
  Q  0.6645  5.29$  4.04$  17.08$
  Q  -1.3290  5.26$  4.57$  17.73$
  Q  0.6645  15.1$  9.45$  16.7$
  Q  0.6645  14.33$  10.4$  17.62$
  Q  -1.3290  14.99$  10.01$  17.33$
  Q  0.6645  16.1$  15.56$  0.79$
  Q  0.6645  16.69$  14.97$  2.15$
  Q  -1.3290  16.08$  15.23$  1.61$
  Q  0.6645  12.54$  7.07$  19.4$
  Q  0.6645  14$  6.71$  19.19$
  Q  -1.3290  13.25$  6.96$  18.94$
  Q  0.6645  7.65$  9.8$  19.64$
  Q  0.6645  8.9$  10.23$  20.34$
  Q  -1.3290  8.35$  9.64$  20.04$
  Q  0.6645  12.43$  12.11$  21.25$
  Q  0.6645  11.6$  11.12$  22.34$
  Q  -1.3290  12.09$  11.36$  21.58$
  Q  0.6645  19.95$  6.23$  7.82$
  Q  0.6645  19.46$  5.96$  9.23$
  Q  -1.3290  19.92$  5.8$  8.55$
  Q  0.6645  6.64$  5.47$  13.77$
  Q  0.6645  7.5$  6.69$  14.3$
  Q  -1.3290  7.32$  6.01$  13.8$
  Q  0.6645  14.71$  3.05$  8.99$
  Q  0.6645  15.54$  2.43$  7.87$
  Q  -1.3290  15.33$  2.58$  8.68$
  Q  0.6645  19.96$  17.18$  10.06$
  Q  0.6645  20.06$  18.52$  9.34$
  Q  -1.3290  19.84$  17.72$  9.43$
  Q  0.6645  16.51$  21.95$  10.12$
  Q  0.6645  16.36$  20.38$  9.6$
  Q  -1.3290  16.27$  21.26$  9.62$
  Q  0.6645  11.68$  15.98$  2.82$
  Q  0.6645  11.29$  17.11$  3.61$
  Q  -1.3290  11.13$  16.56$  3.06$
  Q  0.6645  7.3$  13.26$  0.32$
  Q  0.6645  8.57$  13.3$  1.36$
  Q  -1.3290  8.15$  13.27$  0.57$
  Q  0.6645  4.64$  4.06$  7.82$
  Q  0.6645  4.53$  2.55$  7.71$
  Q  -1.3290  4.26$  3.33$  7.64$
  Q  0.6645  18.74$  14.38$  3.6$
  Q  0.6645  17.4$  14.73$  4.37$
  Q  -1.3290  18.08$  14.86$  3.83$
  Q  0.6645  0.51$  8.65$  8.72$
  Q  0.6645  1.39$  8.62$  9.85$
  Q  -1.3290  0.7$  8.43$  9.45$
  Q  0.6645  8.81$  14.12$  15.62$
  Q  0.6645  8.98$  13.37$  16.84$
  Q  -1.3290  8.52$  13.68$  16.24$
  Q  0.6645  4.77$  8.19$  4.82$
  Q  0.6645  4.34$  6.77$  5.15$
  Q  -1.3290  4.74$  7.5$  5.32$
  Q  0.6645  15.03$  6.17$  4.68$
  Q  0.6645  14.98$  4.84$  4.02$
  Q  -1.3290  14.78$  5.39$  4.66$
  Q  0.6645  5.93$  11.31$  18.89$
  Q  0.6645  5.9$  10.65$  20.25$
  Q  -1.3290  5.83$  10.67$  19.42$
  Q  0.6645  4.99$  7.85$  7.47$
  Q  0.6645  5.13$  6.52$  8.21$
  Q  -1.3290  5.01$  7.35$  8.14$
  Q  0.6645  19.42$  11.05$  14.94$
  Q  0.6645  18.23$  10.82$  13.95$
  Q  -1.3290  18.71$  11.26$  14.51$
  Q  0.6645  6.29$  8.96$  11.13$
  Q  0.6645  5.3$  8.73$  12.3$
  Q  -1.3290  5.81$  9.19$  11.8$
  Q  0.6645  7.07$  11.49$  2.75$
  Q  0.6645  5.77$  10.83$  3.14$
  Q  -1.3290  6.3$  11.23$  2.62$
  Q  0.6645  11.13$  6.32$  21.05$
  Q  0.6645  11.93$  5.53$  22.12$
  Q  -1.3290  11.32$  5.64$  21.53$
  Q  0.6645  3.62$  9.87$  15.15$
  Q  0.6645  3.43$  8.95$  16.32$
  Q  -1.3290  3.45$  9.13$  15.5$
  Q  0.6645  15.17$  10.05$  1.05$
  Q  0.6645  13.71$  10.51$  0.9$
  Q  -1.3290  14.51$  10.52$  1.19$
  Q  0.6645  10.49$  4.49$  2.65$
  Q  0.6645  11.54$  4.03$  3.6$
  Q  -1.3290  11.19$  4.05$  2.85$
  Q  0.6645  16.39$  14.21$  15.48$
  Q  0.6645  15.96$  14.49$  13.97$
  Q  -1.3290  16.17$  14.66$  14.78$
  Q  0.6645  13.84$  8.05$  13.07$
  Q  0.6645  14.26$  6.66$  12.61$
  Q  -1.3290  13.88$  7.42$  12.54$
  Q  0.6645  4.14$  7.95$  18.66$
  Q  0.6645  5.15$  9.09$  18.4$
  Q  -1.3290  4.73$  8.37$  18.23$
  Q  0.6645  3.15$  15.37$  13.61$
  Q  0.6645  3.44$  16.39$  12.62$
  Q  -1.3290  3.51$  15.62$  12.89$
  Q  0.6645  20.14$  7.73$  11.52$
  Q  0.6645  20.85$  7.35$  10.29$
  Q  -1.3290  20.18$  7.46$  10.76$
  Q  0.6645  9.31$  12.33$  21.3$
  Q  0.6645  10.6$  11.54$  20.83$
  Q  -1.3290  9.8$  11.83$  20.8$
  Q  0.6645  16.94$  8.29$  5.64$
  Q  0.6645  17.81$  6.99$  5.4$
  Q  -1.3290  17.27$  7.64$  5.23$
  Q  0.6645  13.3$  0.72$  13.4$
  Q  0.6645  12.71$  1.84$  12.67$
  Q  -1.3290  12.77$  1.05$  12.85$
  Q  0.6645  6.59$  7.29$  2.89$
  Q  0.6645  6.58$  8.68$  2.18$
  Q  -1.3290  6.82$  8.11$  2.75$
  Q  0.6645  10.29$  16.93$  10.61$
  Q  0.6645  10.24$  15.51$  10.2$
  Q  -1.3290  10.45$  16.31$  10.1$
  Q  0.6645  10.42$  8.75$  1.62$
  Q  0.6645  11.85$  9.08$  2.15$
  Q  -1.3290  11.16$  9.17$  1.65$
  Q  0.6645  18.27$  11.88$  11.31$
  Q  0.6645  16.83$  12.18$  11.66$
  Q  -1.3290  17.52$  11.7$  11.53$
  Q  0.6645  3.42$  8.38$  11.01$
  Q  0.6645  3.77$  8.62$  9.51$
  Q  -1.3290  3.36$  8.73$  10.24$
  Q  0.6645  17.61$  2.68$  17.54$
  Q  0.6645  16.19$  3.19$  17.22$
  Q  -1.3290  17$  3.04$  17.06$
  Q  0.6645  13.93$  7.92$  3.6$
  Q  0.6645  13.86$  6.96$  2.44$
  Q  -1.3290  14.07$  7.69$  2.8$
  Q  0.6645  6.12$  13.1$  5.35$
  Q  0.6645  5.97$  12.47$  6.82$
  Q  -1.3290  6.31$  12.95$  6.18$
  Q  0.6645  11.73$  4.12$  14.77$
  Q  0.6645  12.83$  3.41$  15.45$
  Q  -1.3290  12.51$  4.04$  14.98$
  Q  0.6645  6.7$  2.81$  15.55$
  Q  0.6645  5.28$  2.77$  15$
  Q  -1.3290  5.85$  2.77$  15.59$
  Q  0.6645  17.01$  4.41$  10.95$
  Q  0.6645  16.28$  3.22$  10.3$
  Q  -1.3290  16.4$  3.78$  10.9$
  Q  0.6645  8.36$  7.32$  0.14$
  Q  0.6645  8.19$  7.49$  1.63$
  Q  -1.3290  8.63$  7.33$  0.93$
  Q  0.6645  8.91$  3.74$  9.57$
  Q  0.6645  8.56$  5.25$  9.96$
  Q  -1.3290  8.56$  4.52$  9.47$
  Q  0.6645  16.25$  5.2$  13.65$
  Q  0.6645  17.46$  5.92$  13.01$
  Q  -1.3290  17$  5.59$  13.65$
  Q  0.6645  13.6$  16.44$  19.39$
  Q  0.6645  14.98$  16.62$  18.73$
  Q  -1.3290  14.15$  16.81$  18.86$
  Q  0.6645  2.18$  12.62$  7.74$
  Q  0.6645  2.19$  11.73$  8.9$
  Q  -1.3290  2.03$  11.9$  8.11$
  Q  0.6645  8.03$  4.63$  3.84$
  Q  0.6645  8.15$  3.9$  5.18$
  Q  -1.3290  7.9$  4.5$  4.67$
  Q  0.6645  5.63$  7.5$  16.23$
  Q  0.6645  6.95$  6.97$  16.58$
  Q  -1.3290  6.44$  7.4$  16.1$
  Q  0.6645  14.97$  18.36$  14.17$
  Q  0.6645  15.48$  17.01$  14.72$
  Q  -1.3290  15.55$  17.74$  14.36$
  Q  0.6645  9.68$  14.98$  4.55$
  Q  0.6645  8.75$  14.32$  5.51$
  Q  -1.3290  8.96$  14.61$  4.78$
  Q  0.6645  13.08$  20.67$  9.21$
  Q  0.6645  13.27$  19.32$  8.53$
  Q  -1.3290  12.83$  19.95$  8.86$
  Q  0.6645  14$  13.73$  20.7$
  Q  0.6645  12.61$  14.53$  20.47$
  Q  -1.3290  13.18$  13.84$  20.4$
  Q  0.6645  10.53$  17.03$  13.2$
  Q  0.6645  10.96$  18.26$  12.23$
  Q  -1.3290  10.46$  17.59$  12.54$
  Q  0.6645  4.78$  4.21$  12.6$
  Q  0.6645  4.54$  4.73$  14.1$
  Q  -1.3290  4.88$  4.73$  13.33$
  Q  0.6645  6.9$  19.77$  10.01$
  Q  0.6645  6.39$  18.63$  10.84$
  Q  -1.3290  6.6$  19.4$  10.69$
  Q  0.6645  16.9$  17.22$  13.01$
  Q  0.6645  16.96$  17.85$  11.6$
  Q  -1.3290  17$  17.2$  12.16$
  Q  0.6645  16.11$  14.32$  17.7$
  Q  0.6645  16.96$  15.51$  17.28$
  Q  -1.3290  16.34$  15.1$  17.75$
  Q  0.6645  12.9$  15.03$  13.18$
  Q  0.6645  12.94$  15.76$  11.86$
  Q  -1.3290  12.73$  15.15$  12.36$
  Q  0.6645  14.95$  7.01$  8.98$
  Q  0.6645  14.85$  5.5$  9.13$
  Q  -1.3290  15.16$  6.18$  8.8$
  Q  0.6645  5.71$  15$  3.07$
  Q  0.6645  4.72$  15.05$  4.23$
  Q  -1.3290  5.18$  14.65$  3.63$
  Q  0.6645  13.72$  20.36$  4.83$
  Q  0.6645  13.33$  20.6$  6.19$
  Q  -1.3290  13.24$  20.23$  5.48$
  Q  0.6645  18.9$  14.21$  12.75$
  Q  0.6645  18.96$  13.09$  13.77$
  Q  -1.3290  19.1$  13.86$  13.5$
  Q  0.6645  3.65$  14.27$  8.78$
  Q  0.6645  4.35$  13.45$  9.88$
  Q  -1.3290  4.16$  14.16$  9.43$
  Q  0.6645  15.68$  8.06$  1.25$
  Q  0.6645  16.95$  8.25$  0.49$
  Q  -1.3290  16.13$  8.11$  0.57$
  Q  0.6645  11.9$  4.06$  5.75$
  Q  0.6645  13.02$  4.94$  5.1$
  Q  -1.3290  12.24$  4.73$  5.32$
  Q  0.6645  8.69$  1.27$  5.5$
  Q  0.6645  7.72$  1.61$  6.79$
  Q  -1.3290  8.39$  1.71$  6.19$
  Q  0.6645  8.41$  6.66$  18.78$
  Q  0.6645  8.93$  8.04$  18.41$
  Q  -1.3290  8.85$  7.21$  18.31$
  Q  0.6645  15.47$  13.08$  8.78$
  Q  0.6645  15.9$  13.99$  7.67$
  Q  -1.3290  15.51$  13.79$  8.36$
  Q  0.6645  16.15$  13.76$  5.78$
  Q  0.6645  15.74$  15.32$  5.61$
  Q  -1.3290  16.26$  14.64$  5.76$
  Q  0.6645  6.29$  10.26$  0.97$
  Q  0.6645  7.17$  9.46$  -0.05$
  Q  -1.3290  6.47$  9.62$  0.42$
  Q  0.6645  8.41$  14.58$  8.25$
  Q  0.6645  7.31$  14.26$  7.21$
  Q  -1.3290  7.88$  14.76$  7.6$
  Q  0.6645  7.6$  17.2$  3.28$
  Q  0.6645  7.77$  15.68$  3.61$
  Q  -1.3290  7.42$  16.36$  3.27$
  Q  0.6645  18.28$  4.18$  16.01$
  Q  0.6645  18.28$  4.84$  14.64$
  Q  -1.3290  18.65$  4.41$  15.28$
  Q  0.6645  11.92$  20.61$  11.68$
  Q  0.6645  12.62$  19.51$  10.95$
  Q  -1.3290  12.2$  19.84$  11.59$
  Q  0.6645  16.5$  6.3$  16.3$
  Q  0.6645  17.86$  6.87$  16.46$
  Q  -1.3290  17.09$  6.68$  16.72$
  Q  0.6645  11.56$  16.33$  21.39$
  Q  0.6645  11.43$  16.28$  19.93$
  Q  -1.3290  11.8$  16.14$  20.63$
  Q  0.6645  9.13$  1.91$  16.81$
  Q  0.6645  10.51$  1.71$  17.28$
  Q  -1.3290  9.7$  1.7$  17.37$
  Q  0.6645  1.51$  14.02$  15.08$
  Q  0.6645  2.78$  13.21$  14.85$
  Q  -1.3290  2.3$  13.9$  14.84$
  Q  0.6645  4.71$  1.82$  11.09$
  Q  0.6645  4.44$  2.94$  10.11$
  Q  -1.3290  4.9$  2.34$  10.46$
  Q  0.6645  16.74$  6.15$  10.19$
  Q  0.6645  18.09$  6.86$  10.47$
  Q  -1.3290  17.52$  6.24$  10.54$
  Q  0.6645  10.58$  17.41$  1.3$
  Q  0.6645  9.5$  17.13$  0.31$
  Q  -1.3290  10.23$  17.46$  0.55$
  Q  0.6645  6.96$  9.37$  15.99$
  Q  0.6645  8.33$  9.96$  16.39$
  Q  -1.3290  7.53$  9.98$  16.1$
  Q  0.6645  3.96$  14.5$  19.32$
  Q  0.6645  3.9$  12.99$  19.03$
  Q  -1.3290  3.95$  13.66$  19.5$
  Q  0.6645  9.99$  20.62$  10.59$
  Q  0.6645  10.88$  20.49$  9.41$
  Q  -1.3290  10.28$  20.85$  9.88$
  Q  0.6645  6.52$  6$  20.61$
  Q  0.6645  6.57$  7.4$  20.18$
  Q  -1.3290  6.92$  6.71$  20.42$
  Q  0.6645  7.62$  20.2$  7.47$
  Q  0.6645  8.42$  20.8$  8.72$
  Q  -1.3290  7.73$  20.57$  8.28$
  Q  0.6645  8.82$  1.65$  14.77$
  Q  0.6645  9.28$  3.24$  14.89$
  Q  -1.3290  8.79$  2.5$  15.01$
  Q  0.6645  18.23$  13.8$  6.07$
  Q  0.6645  18.96$  13.33$  7.33$
  Q  -1.3290  18.83$  13.38$  6.48$
  Q  0.6645  17.64$  6.65$  3.19$
  Q  0.6645  18.46$  5.43$  3.32$
  Q  -1.3290  17.76$  5.84$  3.15$
  Q  0.6645  3.8$  4.99$  16.23$
  Q  0.6645  2.73$  4.25$  15.36$
  Q  -1.3290  3.29$  4.85$  15.53$
  Q  0.6645  9.08$  16.53$  7.18$
  Q  0.6645  10.03$  17.18$  8.23$
  Q  -1.3290  9.63$  17.11$  7.47$
  Q  0.6645  18.7$  5.49$  6.64$
  Q  0.6645  19.46$  5.18$  5.39$
  Q  -1.3290  19.18$  5.68$  5.98$
  Q  0.6645  19.73$  7.07$  15.02$
  Q  0.6645  19.65$  6.1$  16.13$
  Q  -1.3290  19.64$  6.87$  15.83$
  Q  0.6645  5.84$  15.3$  12.39$
  Q  0.6645  6.59$  15.93$  11.1$
  Q  -1.3290  6.51$  15.57$  11.92$
  Q  0.6645  9.88$  17.17$  18.29$
  Q  0.6645  9.15$  16.27$  19.37$
  Q  -1.3290  9.74$  16.48$  18.81$
  Q  0.6645  5.57$  15.67$  5.99$
  Q  0.6645  4.02$  15.45$  6.33$
  Q  -1.3290  4.72$  15.8$  5.94$
  Q  0.6645  9.4$  -0.46$  13.5$
  Q  0.6645  10.51$  0.5$  13.94$
  Q  -1.3290  9.79$  0.07$  14.03$
  Q  0.6645  1.62$  5.92$  14.52$
  Q  0.6645  1.91$  6.18$  13.07$
  Q  -1.3290  1.43$  5.91$  13.71$
  Q  0.6645  15.76$  13.7$  0.45$
  Q  0.6645  14.96$  12.34$  0.65$
  Q  -1.3290  15.26$  13.02$  0.2$
  Q  0.6645  3.77$  11.42$  13.4$
  Q  0.6645  4.96$  12.05$  14.13$
  Q  -1.3290  4.2$  11.64$  14.08$
  Q  0.6645  4.02$  16.7$  15.11$
  Q  0.6645  2.94$  15.75$  15.63$
  Q  -1.3290  3.45$  16.41$  15.69$
  Q  0.6645  13.84$  14.45$  2.11$
  Q  0.6645  12.53$  13.62$  2.37$
  Q  -1.3290  13.06$  14.29$  2.43$
  Q  0.6645  6.78$  16.15$  8.7$
  Q  0.6645  5.63$  15.79$  9.2$
  Q  -1.3290  6.24$  16.23$  9.29$
  Q  0.6645  14.79$  15.42$  9.59$
  Q  0.6645  15.03$  16.63$  10.53$
  Q  -1.3290  14.58$  16.08$  10.06$
  Q  0.6645  17.62$  18.01$  9.42$
  Q  0.6645  16.44$  18.18$  8.52$
  Q  -1.3290  16.89$  18.32$  9.19$
  Q  0.6645  16.38$  11.64$  5.97$
  Q  0.6645  15.02$  11.88$  5.33$
  Q  -1.3290  15.75$  12.1$  5.64$
  Q  0.6645  14.46$  17.26$  4.76$
  Q  0.6645  13.51$  16.36$  5.12$
  Q  -1.3290  14.25$  16.62$  5.14$
  Q  0.6645  14.96$  18.73$  2.88$
  Q  0.6645  15.9$  19.34$  3.97$
  Q  -1.3290  15.16$  19.07$  3.63$
  Q  0.6645  19.93$  17.81$  4.19$
  Q  0.6645  18.98$  16.67$  4.73$
  Q  -1.3290  19.37$  17.42$  4.73$
  Q  0.6645  11.4$  17.41$  6.24$
  Q  0.6645  12.42$  18.46$  5.55$
  Q  -1.3290  11.82$  17.79$  5.58$
  Q  0.6645  8.74$  5.66$  1.67$
  Q  0.6645  8.14$  4.28$  1.62$
  Q  -1.3290  8.55$  4.89$  1.96$
  Q  0.6645  3.79$  10.38$  4.17$
  Q  0.6645  4.71$  10.05$  5.42$
  Q  -1.3290  4.49$  10.09$  4.58$
  Q  0.6645  6.66$  13.3$  17.07$
  Q  0.6645  6.22$  11.97$  16.62$
  Q  -1.3290  6.14$  12.66$  17.07$
  Q  0.6645  8.16$  20.15$  11.82$
  Q  0.6645  9.22$  19.31$  12.43$
  Q  -1.3290  8.91$  20.01$  12.14$
  Q  0.6645  17.29$  11.16$  19.82$
  Q  0.6645  16.65$  12.12$  20.84$
  Q  -1.3290  17.27$  11.83$  20.35$
  Q  0.6645  7.13$  7.42$  5.7$
  Q  0.6645  8.22$  6.28$  5.65$
  Q  -1.3290  7.9$  7.06$  5.83$
  Q  0.6645  19$  16.29$  16.09$
  Q  0.6645  17.72$  15.82$  15.27$
  Q  -1.3290  18.18$  16.29$  15.83$
  Q  0.6645  16.44$  7.31$  20.12$
  Q  0.6645  16.43$  6.46$  18.85$
  Q  -1.3290  16.26$  6.62$  19.67$
  Q  0.6645  10.19$  13.14$  19.06$
  Q  0.6645  10.38$  14.57$  18.37$
  Q  -1.3290  10.38$  13.69$  18.46$
  Q  0.6645  8.3$  16.96$  16.7$
  Q  0.6645  9.3$  17.63$  15.55$
  Q  -1.3290  8.65$  17.58$  16.15$
  Q  0.6645  12.8$  20.05$  14.61$
  Q  0.6645  13$  19.3$  13.35$
  Q  -1.3290  13.11$  19.45$  14.16$
  Q  0.6645  8.71$  18.65$  6.44$
  Q  0.6645  8.12$  18.98$  5.08$
  Q  -1.3290  8.29$  19.13$  5.91$
*
