! NoMOPrint PrintBasis #MINIPRINT SMALLPRINT LARGEPRINT
! ALLPOP XYZFILE
#! BP86 3-21G   TightSCF
! ENGRAD
! B3LYP NormalPNO PModel #DecontractAux
#! VerySlowConv 
 %maxcore 5000
 %scf  maxiter   500  end 

%pal
    nprocs 32
end

%basis
    NewGTO O    # New basis for oxygen
        "aug-cc-pVTZ"
    end
    NewGTO C    # New basis for carbon
        "aug-cc-pVTZ"
    end
    NewGTO H    # New basis for hydrogen
        "cc-pVTZ"
    end
end

* xyz 0   1
  C  10.08  10.8  12.38  #1
  H  10.4  9.87  12.91  #2
  H  9.11  10.53  12.08  #3
  C  10.78  11.29  11.19  #4
  H  10.16  12.14  10.74  #5
  H  11.76  11.75  11.44  #6
  C  11.04  10.21  10.16  #7
  H  10.06  9.83  9.92  #8
  H  11.71  9.36  10.51  #9
  C  11.48  10.75  8.76  #10
  H  10.69  11.42  8.39  #11
  H  11.66  10.02  8.01  #12
  O  12.67  11.59  8.82  #13
  H  12.64  12.43  8.31  #14
  O  9.98  11.85  13.42  #15
  H  10.85  11.84  13.77  #16
  O  12.53  11.22  14.87  #17
  H  13.11  11.9  14.51  #18
  H  13.21  10.59  15.11  #19
  O  7.47  11.52  14.91  #20
  H  8.25  11.74  14.42  #21
  H  7.2  12.27  15.38  #22
  O  10.88  9.35  5.62  #23
  H  11.83  9.34  5.53  #24
  H  10.54  8.46  5.76  #25
  O  9.64  11.58  6.22  #26
  H  9.7  11.89  5.28  #27
  H  10  10.71  6.23  #28
  O  10.59  7.33  11.67  #29
  H  10.15  7.28  10.81  #30
  H  9.82  7.47  12.23  #31
  O  15.3  12.53  16.3  #32
  H  15.01  12.68  15.42  #33
  H  16.2  12.87  16.27  #34
  O  10.61  10.75  16.65  #35
  H  11.43  10.94  16.2  #36
  H  10.81  10.92  17.58  #37
  O  15.42  10.66  7.97  #38
  H  16.31  10.79  8.21  #39
  H  15.08  10.35  8.79  #40
  O  7.2  12.33  7.33  #41
  H  8.12  12.19  7.04  #42
  H  7.05  11.92  8.2  #43
  O  12.18  14.37  7.88  #44
  H  11.65  14.14  8.66  #45
  H  13.11  14.19  8.01  #46
  O  12.79  6.66  13.23  #47
  H  13.43  7.22  13.72  #48
  H  12.16  7.17  12.7  #49
  O  11.09  4.09  12.42  #50
  H  10.63  4.98  12.42  #51
  H  12.02  4.36  12.35  #52
  O  6.87  13.75  16.39  #53
  H  6.97  13.48  17.32  #54
  H  7.45  14.51  16.29  #55
  O  9.17  14.43  12.63  #56
  H  8.25  14.66  12.62  #57
  H  9.34  13.59  13.09  #58
  O  14.91  13.69  8.12  #59
  H  15.33  13.99  7.25  #60
  H  15.02  12.74  8.11  #61
  O  9.84  10.31  2.95  #62
  H  9.92  9.61  2.31  #63
  H  10.25  9.89  3.72  #64
  O  5.97  9.31  15.94  #65
  H  6.43  9.99  15.4  #66
  H  5.84  8.5  15.41  #67
  O  15.01  9.64  15.4  #68
  H  15.35  9.43  14.52  #69
  H  15.5  10.39  15.76  #70
  O  10.96  14.93  10.25  #71
  H  10.67  14.79  11.2  #72
  H  10.16  15.4  9.96  #73
  O  11.31  13.69  16.59  #74
  H  11.83  13.46  17.41  #75
  H  10.8  12.96  16.28  #76
  O  14.48  10.62  10.73  #77
  H  13.88  11.09  10.16  #78
  H  15.14  11.3  10.75  #79
  O  9.94  6.76  6.22  #80
  H  9.61  6.47  7.06  #81
  H  9.24  6.54  5.55  #82
  O  14.21  13.3  14.05  #83
  H  14.16  14.28  14.18  #84
  H  14.94  13.1  13.38  #85
  O  6.95  10.83  9.86  #86
  H  6.81  11.26  10.69  #87
  H  6.12  10.6  9.41  #88
  O  8.69  7.97  13.52  #89
  H  8.5  7  13.53  #90
  H  8.68  8.26  14.4  #91
  O  13.86  9.79  6.04  #92
  H  14.22  9.03  5.61  #93
  H  14.53  10.04  6.78  #94
  O  5.87  11.83  12.34  #95
  H  5.75  11.7  13.3  #96
  H  4.96  12.01  12.02  #97
  O  9.29  6.44  8.99  #98
  H  8.34  6.55  9.1  #99
  H  9.41  5.51  9.23  #100
  Q  0.6645  6.99$  16.43$  15.05$
  Q  0.6645  6.09$  15.85$  13.96$
  Q  -1.3290  6.34$  16.45$  14.53$
  Q  0.6645  6.51$  7.68$  10.3$
  Q  0.6645  7.08$  8.94$  9.73$
  Q  -1.3290  6.83$  8.15$  9.71$
  Q  0.6645  15.91$  14.47$  1.58$
  Q  0.6645  15.07$  14.58$  0.16$
  Q  -1.3290  15.29$  14.67$  1$
  Q  0.6645  3.18$  15.47$  14.92$
  Q  0.6645  2.49$  16.99$  14.76$
  Q  -1.3290  2.57$  16.09$  14.76$
  Q  0.6645  6.58$  13.99$  6.48$
  Q  0.6645  5.47$  13.73$  5.58$
  Q  -1.3290  6.08$  14.17$  5.85$
  Q  0.6645  17.46$  12.04$  4.53$
  Q  0.6645  18.85$  12.47$  4.55$
  Q  -1.3290  18.24$  11.91$  4.67$
  Q  0.6645  18.46$  10.99$  13.72$
  Q  0.6645  18.54$  10.74$  12.21$
  Q  -1.3290  18.49$  11.2$  12.9$
  Q  0.6645  18.91$  13.42$  16.25$
  Q  0.6645  18.76$  12.38$  17.14$
  Q  -1.3290  18.46$  12.88$  16.63$
  Q  0.6645  6.09$  7.71$  0.85$
  Q  0.6645  7.52$  7.82$  1.2$
  Q  -1.3290  6.9$  7.67$  0.66$
  Q  0.6645  6.96$  3.51$  16.92$
  Q  0.6645  5.55$  3.29$  16.29$
  Q  -1.3290  6.19$  3.13$  16.8$
  Q  0.6645  1.24$  11.29$  13.34$
  Q  0.6645  1.82$  10.16$  12.68$
  Q  -1.3290  1.65$  10.6$  13.35$
  Q  0.6645  10.72$  22.48$  7.01$
  Q  0.6645  11.51$  21.23$  6.86$
  Q  -1.3290  10.81$  21.65$  6.9$
  Q  0.6645  18.11$  13.24$  9.2$
  Q  0.6645  16.74$  13.93$  9.12$
  Q  -1.3290  17.38$  13.57$  9.53$
  Q  0.6645  9.36$  9.4$  16.31$
  Q  0.6645  7.85$  9.23$  16.21$
  Q  -1.3290  8.64$  8.98$  16.27$
  Q  0.6645  14.56$  9.62$  18.79$
  Q  0.6645  14.36$  11.05$  19.03$
  Q  -1.3290  14.73$  10.32$  19.15$
  Q  0.6645  12.85$  5.13$  6.36$
  Q  0.6645  11.79$  6.19$  6.66$
  Q  -1.3290  12.56$  5.9$  6.55$
  Q  0.6645  7.68$  17.81$  6.84$
  Q  0.6645  8.05$  19.28$  7.08$
  Q  -1.3290  8.18$  18.45$  7.08$
  Q  0.6645  6.05$  19.99$  5.56$
  Q  0.6645  5.77$  18.47$  5.79$
  Q  -1.3290  5.73$  19.22$  5.37$
  Q  0.6645  11.21$  18.24$  11.91$
  Q  0.6645  11.08$  19.61$  11.33$
  Q  -1.3290  10.89$  19$  11.86$
  Q  0.6645  17.73$  18.16$  9.82$
  Q  0.6645  18.87$  18.05$  8.88$
  Q  -1.3290  18.38$  17.79$  9.47$
  Q  0.6645  14.59$  18.11$  2.11$
  Q  0.6645  14.77$  16.55$  1.8$
  Q  -1.3290  14.4$  17.27$  2.03$
  Q  0.6645  13.05$  6.91$  4.33$
  Q  0.6645  12.2$  6.6$  3.1$
  Q  -1.3290  12.9$  6.85$  3.51$
  Q  0.6645  12.38$  3$  6.93$
  Q  0.6645  12.61$  3.11$  5.37$
  Q  -1.3290  12.68$  3.33$  6.18$
  Q  0.6645  17.67$  16.17$  5.67$
  Q  0.6645  19.05$  16.62$  6.17$
  Q  -1.3290  18.42$  16.56$  5.62$
  Q  0.6645  14.8$  9.35$  21.09$
  Q  0.6645  14.41$  9.56$  22.6$
  Q  -1.3290  14.32$  9.29$  21.77$
  Q  0.6645  0.69$  10.29$  5.94$
  Q  0.6645  1.79$  10.94$  6.79$
  Q  -1.3290  1.01$  10.74$  6.6$
  Q  0.6645  5.21$  6.09$  16.05$
  Q  0.6645  5.01$  6.29$  14.6$
  Q  -1.3290  5.45$  6.34$  15.29$
  Q  0.6645  12.28$  1.22$  13.87$
  Q  0.6645  11.17$  0.17$  14.31$
  Q  -1.3290  11.51$  0.95$  14.11$
  Q  0.6645  15$  4.7$  11.26$
  Q  0.6645  15.82$  3.39$  11.2$
  Q  -1.3290  15.53$  4.08$  11.54$
  Q  0.6645  13.11$  7.65$  21.73$
  Q  0.6645  12.1$  7.41$  20.64$
  Q  -1.3290  12.49$  7.23$  21.35$
  Q  0.6645  13.96$  17.38$  4.02$
  Q  0.6645  13.08$  16.89$  5.11$
  Q  -1.3290  13.75$  17.27$  4.81$
  Q  0.6645  10.42$  20$  15.44$
  Q  0.6645  10.3$  19.86$  13.79$
  Q  -1.3290  10.31$  20.25$  14.6$
  Q  0.6645  16.54$  10.56$  1.23$
  Q  0.6645  17.72$  11.32$  0.5$
  Q  -1.3290  17.02$  11.24$  0.97$
  Q  0.6645  8.54$  2.65$  5.96$
  Q  0.6645  7.4$  2.71$  6.98$
  Q  -1.3290  8.02$  3.04$  6.53$
  Q  0.6645  2.5$  15.62$  12.96$
  Q  0.6645  1.59$  15.78$  11.78$
  Q  -1.3290  2.34$  15.62$  12.14$
  Q  0.6645  16.93$  12.31$  12.39$
  Q  0.6645  16.31$  13.3$  11.5$
  Q  -1.3290  16.26$  12.7$  12.07$
  Q  0.6645  14.51$  1.96$  5.71$
  Q  0.6645  14.19$  1.5$  4.18$
  Q  -1.3290  14.33$  1.4$  5.05$
  Q  0.6645  8.06$  7.38$  3.96$
  Q  0.6645  9.07$  6.38$  3.41$
  Q  -1.3290  8.43$  6.65$  3.88$
  Q  0.6645  19.67$  7.73$  9.49$
  Q  0.6645  20.11$  6.94$  8.3$
  Q  -1.3290  20.08$  7.62$  8.78$
  Q  0.6645  4.8$  4.65$  7.31$
  Q  0.6645  3.34$  5.21$  7.7$
  Q  -1.3290  3.95$  4.65$  7.5$
  Q  0.6645  16.75$  17.39$  19.59$
  Q  0.6645  16.6$  15.97$  19.06$
  Q  -1.3290  16.34$  16.75$  19.25$
  Q  0.6645  4.17$  18.1$  11.19$
  Q  0.6645  3.08$  17.09$  11.01$
  Q  -1.3290  3.56$  17.75$  10.78$
  Q  0.6645  2.29$  10.93$  16.83$
  Q  0.6645  1.77$  10.17$  15.54$
  Q  -1.3290  1.92$  10.31$  16.4$
  Q  0.6645  12.06$  2.45$  18.44$
  Q  0.6645  12.51$  3.84$  18.22$
  Q  -1.3290  12.34$  3.04$  17.97$
  Q  0.6645  15.36$  18.56$  12.61$
  Q  0.6645  16.43$  17.46$  12.59$
  Q  -1.3290  15.76$  17.91$  12.29$
  Q  0.6645  1.39$  6.59$  9.88$
  Q  0.6645  0$  7.27$  9.61$
  Q  -1.3290  0.85$  7.24$  9.71$
  Q  0.6645  15.36$  10.19$  3.13$
  Q  0.6645  14.88$  8.79$  2.77$
  Q  -1.3290  15.04$  9.61$  2.6$
  Q  0.6645  11.23$  10.05$  19.4$
  Q  0.6645  12.02$  11.39$  19.61$
  Q  -1.3290  11.36$  10.91$  19.35$
  Q  0.6645  12.82$  12.92$  3.04$
  Q  0.6645  14.13$  13.66$  2.52$
  Q  -1.3290  13.63$  13.28$  3.13$
  Q  0.6645  11.16$  3.01$  16.23$
  Q  0.6645  10.54$  2.69$  14.86$
  Q  -1.3290  10.6$  3.09$  15.58$
  Q  0.6645  6.79$  15.95$  9.56$
  Q  0.6645  5.29$  16.51$  9.66$
  Q  -1.3290  5.92$  15.91$  9.63$
  Q  0.6645  8.47$  17.25$  8.76$
  Q  0.6645  8.48$  16.98$  10.3$
  Q  -1.3290  8.48$  16.77$  9.47$
  Q  0.6645  14.17$  2.29$  13.63$
  Q  0.6645  13.98$  1.63$  12.33$
  Q  -1.3290  14$  1.63$  13.17$
  Q  0.6645  7.46$  14.33$  1.69$
  Q  0.6645  7.14$  14.66$  0.29$
  Q  -1.3290  7.27$  14.12$  0.91$
  Q  0.6645  15.5$  4.07$  4.04$
  Q  0.6645  16.76$  4.81$  4.09$
  Q  -1.3290  16.1$  4.49$  4.42$
  Q  0.6645  6.56$  10.81$  6.35$
  Q  0.6645  6.59$  9.64$  5.36$
  Q  -1.3290  6.26$  10.11$  6$
  Q  0.6645  9.13$  16.1$  16.36$
  Q  0.6645  7.92$  16.65$  17.25$
  Q  -1.3290  8.31$  16.23$  16.57$
  Q  0.6645  5.65$  16.87$  7.4$
  Q  0.6645  6.22$  16.05$  6.19$
  Q  -1.3290  6.13$  16.73$  6.72$
  Q  0.6645  14.63$  4.21$  13.39$
  Q  0.6645  13.48$  4.53$  14.4$
  Q  -1.3290  14.1$  4.1$  14.08$
  Q  0.6645  10.79$  4.48$  19.91$
  Q  0.6645  9.41$  4.17$  19.34$
  Q  -1.3290  10.05$  4.68$  19.54$
  Q  0.6645  6.11$  5.62$  19.7$
  Q  0.6645  6.93$  6.56$  20.72$
  Q  -1.3290  6.6$  6.27$  19.94$
  Q  0.6645  1.23$  9.12$  10.55$
  Q  0.6645  0.81$  10.66$  10.41$
  Q  -1.3290  1.31$  9.98$  10.63$
  Q  0.6645  9.55$  14.95$  0.66$
  Q  0.6645  10.51$  14.97$  1.89$
  Q  -1.3290  10.26$  14.75$  1.11$
  Q  0.6645  6.59$  6.2$  7.48$
  Q  0.6645  7.27$  4.86$  7.17$
  Q  -1.3290  6.68$  5.36$  7.48$
  Q  0.6645  15.49$  3.54$  7.83$
  Q  0.6645  14.45$  4.46$  8.14$
  Q  -1.3290  15$  3.9$  8.36$
  Q  0.6645  3.31$  7.21$  7.1$
  Q  0.6645  2.04$  7.46$  7.87$
  Q  -1.3290  2.55$  7.03$  7.38$
  Q  0.6645  3.17$  5.37$  16.84$
  Q  0.6645  4.06$  5.12$  18.23$
  Q  -1.3290  3.88$  5.29$  17.38$
  Q  0.6645  15.02$  7.9$  8.11$
  Q  0.6645  13.86$  6.94$  7.71$
  Q  -1.3290  14.51$  7.24$  8.19$
  Q  0.6645  12.16$  16.35$  8.18$
  Q  0.6645  12.15$  17.4$  7.01$
  Q  -1.3290  12.4$  17.05$  7.75$
  Q  0.6645  14.01$  1.16$  10.11$
  Q  0.6645  14.27$  2.56$  9.57$
  Q  -1.3290  13.91$  1.99$  10.07$
  Q  0.6645  10.71$  15.65$  4.36$
  Q  0.6645  9.26$  15.53$  3.73$
  Q  -1.3290  10.06$  15.72$  3.79$
  Q  0.6645  9.2$  1.03$  10.82$
  Q  0.6645  7.94$  0.82$  9.92$
  Q  -1.3290  8.47$  1.25$  10.42$
  Q  0.6645  19.75$  15.02$  8.12$
  Q  0.6645  20.21$  13.61$  7.58$
  Q  -1.3290  19.89$  14.17$  8.15$
  Q  0.6645  17.3$  7.99$  17.15$
  Q  0.6645  16.65$  7.11$  16.09$
  Q  -1.3290  17.24$  7.61$  16.42$
  Q  0.6645  10.84$  18.31$  3.91$
  Q  0.6645  10.55$  17.77$  2.51$
  Q  -1.3290  10.57$  18.34$  3.13$
  Q  0.6645  14.31$  17.44$  8.98$
  Q  0.6645  15.22$  17.68$  10.27$
  Q  -1.3290  15.02$  17.69$  9.44$
  Q  0.6645  4.23$  9.55$  8.69$
  Q  0.6645  3.6$  10.58$  9.65$
  Q  -1.3290  4.22$  10.26$  9.14$
  Q  0.6645  3.59$  2.66$  12.05$
  Q  0.6645  4.23$  4.05$  12.35$
  Q  -1.3290  3.64$  3.43$  12.39$
  Q  0.6645  18.28$  11.28$  6.71$
  Q  0.6645  19.01$  10.77$  8$
  Q  -1.3290  18.34$  10.97$  7.51$
  Q  0.6645  12.85$  5.36$  17.35$
  Q  0.6645  12.36$  5.92$  18.72$
  Q  -1.3290  12.91$  5.52$  18.2$
  Q  0.6645  9.83$  5.49$  1.68$
  Q  0.6645  10.5$  4.85$  2.97$
  Q  -1.3290  10.27$  5.49$  2.43$
  Q  0.6645  15.97$  13.91$  19.92$
  Q  0.6645  15.35$  12.82$  20.84$
  Q  -1.3290  15.35$  13.55$  20.39$
  Q  0.6645  5.47$  8.69$  17.74$
  Q  0.6645  5.45$  7.65$  18.86$
  Q  -1.3290  5.27$  8.4$  18.52$
  Q  0.6645  16.62$  3.62$  6.17$
  Q  0.6645  17.67$  2.74$  6.76$
  Q  -1.3290  16.87$  2.98$  6.62$
  Q  0.6645  14.63$  21.28$  13.74$
  Q  0.6645  14.13$  20$  14.41$
  Q  -1.3290  14.58$  20.44$  13.81$
  Q  0.6645  11.86$  2.6$  2.69$
  Q  0.6645  11.01$  2.55$  3.96$
  Q  -1.3290  11.66$  2.76$  3.48$
  Q  0.6645  7.95$  9.74$  3.51$
  Q  0.6645  6.56$  9.88$  3.27$
  Q  -1.3290  7.19$  9.48$  3.56$
  Q  0.6645  13.99$  13.3$  18.84$
  Q  0.6645  13.9$  12.77$  17.44$
  Q  -1.3290  13.61$  12.92$  18.21$
  Q  0.6645  7.05$  18.06$  18.7$
  Q  0.6645  6.35$  16.71$  18.75$
  Q  -1.3290  7.01$  17.24$  18.75$
  Q  0.6645  14.86$  11.24$  5.22$
  Q  0.6645  14.84$  12.37$  4.29$
  Q  -1.3290  15.22$  11.79$  4.72$
  Q  0.6645  2.64$  4.95$  11.13$
  Q  0.6645  3.78$  5.55$  10.25$
  Q  -1.3290  3.05$  5.58$  10.67$
  Q  0.6645  21.02$  12.97$  12.04$
  Q  0.6645  20.23$  12.01$  12.84$
  Q  -1.3290  20.83$  12.55$  12.71$
  Q  0.6645  18.13$  9.23$  10.41$
  Q  0.6645  19.45$  10.04$  10.18$
  Q  -1.3290  18.86$  9.63$  10.67$
  Q  0.6645  5.17$  19.74$  12.51$
  Q  0.6645  6.44$  18.96$  12.07$
  Q  -1.3290  5.66$  19.32$  11.97$
  Q  0.6645  15.51$  5.54$  16.78$
  Q  0.6645  15.14$  5.12$  15.39$
  Q  -1.3290  15.36$  5.68$  16.01$
  Q  0.6645  14.22$  7.29$  17.62$
  Q  0.6645  14.52$  8.48$  16.67$
  Q  -1.3290  14.16$  8.09$  17.36$
  Q  0.6645  18.53$  16.03$  10.93$
  Q  0.6645  18.7$  14.56$  10.96$
  Q  -1.3290  18.81$  15.33$  11.23$
  Q  0.6645  11.96$  1.97$  8.94$
  Q  0.6645  10.81$  2.63$  8.36$
  Q  -1.3290  11.5$  2.24$  8.3$
  Q  0.6645  8.18$  16.32$  20.25$
  Q  0.6645  8.98$  15$  20.24$
  Q  -1.3290  8.42$  15.56$  20.55$
  Q  0.6645  11.46$  4.88$  15.53$
  Q  0.6645  11.81$  6.14$  14.87$
  Q  -1.3290  11.87$  5.57$  15.48$
  Q  0.6645  13.01$  16.83$  12.67$
  Q  0.6645  12.38$  16.1$  11.51$
  Q  -1.3290  12.44$  16.69$  12.11$
  Q  0.6645  15.24$  15.61$  5.5$
  Q  0.6645  15.98$  14.48$  4.71$
  Q  -1.3290  15.68$  14.89$  5.41$
  Q  0.6645  5.71$  11.88$  19.49$
  Q  0.6645  5.36$  10.43$  19.06$
  Q  -1.3290  5.2$  11.2$  19.39$
  Q  0.6645  16$  7.53$  5.93$
  Q  0.6645  15.49$  6.83$  4.58$
  Q  -1.3290  15.54$  7.43$  5.21$
  Q  0.6645  17.19$  7.04$  11$
  Q  0.6645  15.88$  7.23$  10.24$
  Q  -1.3290  16.64$  7.47$  10.52$
  Q  0.6645  13.03$  17.16$  20.53$
  Q  0.6645  14.22$  17.12$  19.69$
  Q  -1.3290  13.43$  17.26$  19.82$
  Q  0.6645  8.67$  5.17$  14.88$
  Q  0.6645  7.37$  5.64$  14.64$
  Q  -1.3290  8.08$  5.35$  14.4$
  Q  0.6645  7.33$  20.48$  9.47$
  Q  0.6645  6.06$  20.32$  10.25$
  Q  -1.3290  6.55$  20.7$  9.69$
  Q  0.6645  18.69$  5.71$  11.81$
  Q  0.6645  17.23$  5.28$  12.02$
  Q  -1.3290  17.91$  5.77$  12.08$
  Q  0.6645  17.75$  10.73$  17.19$
  Q  0.6645  16.83$  10.51$  18.42$
  Q  -1.3290  17.51$  10.4$  17.9$
  Q  0.6645  20.44$  9.15$  12.32$
  Q  0.6645  21.72$  9.59$  13.21$
  Q  -1.3290  20.93$  9.26$  13.04$
  Q  0.6645  17.05$  6.44$  2.39$
  Q  0.6645  18.38$  6.56$  3.15$
  Q  -1.3290  17.62$  6.26$  2.98$
  Q  0.6645  13.02$  18.18$  16.04$
  Q  0.6645  14.54$  18.31$  16.35$
  Q  -1.3290  13.84$  18.38$  15.88$
  Q  0.6645  3.53$  12.82$  17.07$
  Q  0.6645  3.69$  12.07$  18.44$
  Q  -1.3290  3.29$  12.35$  17.73$
  Q  0.6645  8.74$  11.51$  20.69$
  Q  0.6645  8.37$  12.8$  21.58$
  Q  -1.3290  8.69$  12.35$  20.91$
  Q  0.6645  3.41$  11.99$  5.5$
  Q  0.6645  4.25$  11.58$  6.72$
  Q  -1.3290  3.72$  12.06$  6.28$
  Q  0.6645  5.18$  16.13$  20.65$
  Q  0.6645  4.3$  15.71$  19.55$
  Q  -1.3290  5.03$  15.71$  19.94$
  Q  0.6645  10.48$  3.62$  10.35$
  Q  0.6645  9.28$  2.85$  9.84$
  Q  -1.3290  9.88$  3.46$  9.81$
  Q  0.6645  10.94$  11.62$  2.26$
  Q  0.6645  10.96$  12.89$  1.3$
  Q  -1.3290  11.29$  12.25$  1.83$
  Q  0.6645  10.36$  18.63$  6.34$
  Q  0.6645  11.71$  19.25$  5.92$
  Q  -1.3290  11.12$  18.61$  5.96$
  Q  0.6645  -0.06$  13.36$  9.53$
  Q  0.6645  1.26$  13.36$  10.42$
  Q  -1.3290  0.49$  13.13$  10.17$
  Q  0.6645  11.97$  16.99$  18.33$
  Q  0.6645  11.48$  16.05$  17.29$
  Q  -1.3290  11.7$  16.79$  17.58$
  Q  0.6645  6.22$  13.83$  12.44$
  Q  0.6645  6.03$  15.12$  11.53$
  Q  -1.3290  6.3$  14.67$  12.21$
  Q  0.6645  13.57$  21.46$  5.86$
  Q  0.6645  13.84$  20.03$  6.37$
  Q  -1.3290  13.32$  20.67$  6.14$
  Q  0.6645  12.24$  18.84$  8.87$
  Q  0.6645  12.9$  19.82$  9.94$
  Q  -1.3290  12.27$  19.47$  9.46$
  Q  0.6645  19.73$  9.26$  14.47$
  Q  0.6645  18.49$  8.67$  15.24$
  Q  -1.3290  19.05$  9.31$  14.98$
  Q  0.6645  17.57$  18.54$  5.52$
  Q  0.6645  16.7$  19.78$  5.9$
  Q  -1.3290  17.33$  19.35$  5.51$
  Q  0.6645  8.03$  17.81$  13.04$
  Q  0.6645  9$  18.59$  12.14$
  Q  -1.3290  8.26$  18.19$  12.34$
  Q  0.6645  15.29$  18.56$  7.6$
  Q  0.6645  14.78$  18.26$  6.27$
  Q  -1.3290  15.15$  18.73$  6.81$
  Q  0.6645  17.31$  5.18$  8.87$
  Q  0.6645  18.12$  4.93$  7.49$
  Q  -1.3290  17.96$  5.22$  8.28$
  Q  0.6645  7.59$  13.22$  19.59$
  Q  0.6645  6.32$  14.08$  19.32$
  Q  -1.3290  6.86$  13.43$  19.25$
  Q  0.6645  18.04$  14.52$  19.07$
  Q  0.6645  17.28$  14.16$  17.75$
  Q  -1.3290  17.36$  14.49$  18.53$
  Q  0.6645  9.81$  20.85$  9.62$
  Q  0.6645  9.65$  20.9$  8.17$
  Q  -1.3290  9.36$  20.81$  8.94$
  Q  0.6645  5.14$  17.58$  15.68$
  Q  0.6645  4.24$  17.85$  16.93$
  Q  -1.3290  4.83$  18.03$  16.36$
  Q  0.6645  18.79$  8.85$  2.76$
  Q  0.6645  19.79$  8.93$  1.33$
  Q  -1.3290  19.2$  8.61$  1.95$
  Q  0.6645  5.75$  9.7$  12.9$
  Q  0.6645  6.9$  8.57$  12.68$
  Q  -1.3290  6.09$  8.89$  12.85$
  Q  0.6645  14.97$  16.24$  13.76$
  Q  0.6645  13.96$  16.55$  14.8$
  Q  -1.3290  14.25$  16.15$  14.15$
  Q  0.6645  12.46$  16.96$  0.89$
  Q  0.6645  11.29$  16.38$  0.14$
  Q  -1.3290  11.82$  16.99$  0.37$
  Q  0.6645  3.65$  13.65$  7.85$
  Q  0.6645  4.42$  14.58$  8.96$
  Q  -1.3290  3.78$  14.18$  8.54$
  Q  0.6645  9.03$  5.3$  17.51$
  Q  0.6645  9.11$  4.12$  16.57$
  Q  -1.3290  8.72$  4.75$  16.95$
  Q  0.6645  6.19$  5.03$  11.25$
  Q  0.6645  6.08$  5.17$  9.68$
  Q  -1.3290  5.89$  5.33$  10.5$
  Q  0.6645  11.94$  14.84$  6.16$
  Q  0.6645  12.77$  14.76$  4.78$
  Q  -1.3290  12.22$  15.06$  5.37$
  Q  0.6645  21.09$  9.41$  8.75$
  Q  0.6645  21.62$  10.89$  8.75$
  Q  -1.3290  21.03$  10.27$  8.84$
  Q  0.6645  3.39$  6.77$  12.48$
  Q  0.6645  4.6$  7.59$  12.88$
  Q  -1.3290  3.99$  7$  12.97$
  Q  0.6645  18.03$  15.95$  12.99$
  Q  0.6645  18.07$  16.62$  14.39$
  Q  -1.3290  17.71$  16.21$  13.73$
  Q  0.6645  4.04$  13.07$  14.93$
  Q  0.6645  4.93$  13.91$  15.86$
  Q  -1.3290  4.26$  13.8$  15.35$
  Q  0.6645  6.96$  18.69$  4.08$
  Q  0.6645  8.39$  18.49$  3.68$
  Q  -1.3290  7.58$  18.34$  3.66$
  Q  0.6645  5.98$  12.32$  2.53$
  Q  0.6645  4.56$  11.6$  2.89$
  Q  -1.3290  5.42$  11.69$  2.8$
  Q  0.6645  9.79$  8.76$  -0.1$
  Q  0.6645  10.64$  7.71$  0.75$
  Q  -1.3290  10$  8.24$  0.56$
  Q  0.6645  5.56$  5.18$  4.25$
  Q  0.6645  6.99$  4.96$  3.76$
  Q  -1.3290  6.16$  4.78$  3.86$
  Q  0.6645  9.99$  15.95$  13.82$
  Q  0.6645  11.2$  16.75$  13.59$
  Q  -1.3290  10.58$  16.47$  14.04$
  Q  0.6645  3.48$  13.33$  10.26$
  Q  0.6645  3.12$  14.03$  11.52$
  Q  -1.3290  3.43$  13.37$  11.09$
  Q  0.6645  3.46$  10.73$  14.28$
  Q  0.6645  4.6$  10.43$  15.28$
  Q  -1.3290  4.15$  10.92$  14.72$
  Q  0.6645  5.67$  7.86$  8.24$
  Q  0.6645  5.18$  8.33$  6.87$
  Q  -1.3290  5.19$  7.82$  7.54$
  Q  0.6645  11.78$  0.38$  11.14$
  Q  0.6645  11$  0.9$  12.22$
  Q  -1.3290  11.06$  0.51$  11.5$
  Q  0.6645  7.19$  3.97$  13.31$
  Q  0.6645  6.3$  2.87$  12.64$
  Q  -1.3290  6.55$  3.67$  12.82$
  Q  0.6645  17.49$  7.23$  7.79$
  Q  0.6645  17.45$  8.8$  7.77$
  Q  -1.3290  17.29$  8.01$  7.51$
  Q  0.6645  7.46$  9.13$  20.69$
  Q  0.6645  8.43$  9.01$  19.59$
  Q  -1.3290  8.16$  9.34$  20.3$
  Q  0.6645  18.31$  8.69$  5.33$
  Q  0.6645  18.8$  9.79$  4.35$
  Q  -1.3290  18.77$  9.01$  4.69$
  Q  0.6645  10.63$  7.64$  18.75$
  Q  0.6645  12.05$  8.41$  18.44$
  Q  -1.3290  11.43$  7.99$  18.91$
  Q  0.6645  13.87$  6.96$  11.34$
  Q  0.6645  14.12$  6.66$  9.83$
  Q  -1.3290  14.13$  6.49$  10.65$
  Q  0.6645  17.12$  12.87$  2.23$
  Q  0.6645  18.21$  13.85$  2.82$
  Q  -1.3290  17.4$  13.56$  2.65$
  Q  0.6645  9.29$  19.02$  18.03$
  Q  0.6645  10.69$  18.43$  17.67$
  Q  -1.3290  10.09$  19.04$  17.76$
  Q  0.6645  19.35$  15.25$  4.35$
  Q  0.6645  20.54$  14.67$  3.51$
  Q  -1.3290  19.77$  14.68$  3.88$
  Q  0.6645  14.69$  9.5$  12.04$
  Q  0.6645  15.81$  8.46$  12.25$
  Q  -1.3290  15.13$  8.88$  12.46$
  Q  0.6645  13.36$  10.87$  21.45$
  Q  0.6645  12.49$  12.12$  21.77$
  Q  -1.3290  12.99$  11.63$  21.28$
  Q  0.6645  8.1$  6.98$  18.84$
  Q  0.6645  8.71$  7.54$  17.46$
  Q  -1.3290  8.7$  7.25$  18.28$
  Q  0.6645  15.61$  7.76$  0.9$
  Q  0.6645  14.74$  6.77$  1.52$
  Q  -1.3290  15.46$  7.03$  1.28$
  Q  0.6645  10.07$  13.36$  19.53$
  Q  0.6645  10.13$  14.15$  18.1$
  Q  -1.3290  10.03$  14.06$  18.98$
  Q  0.6645  7.32$  16.26$  3.23$
  Q  0.6645  7.04$  15$  4.1$
  Q  -1.3290  7.32$  15.42$  3.4$
*
