! NoMOPrint PrintBasis #MINIPRINT SMALLPRINT LARGEPRINT
! ALLPOP XYZFILE
#! BP86 3-21G   TightSCF
! ENGRAD
! B3LYP NormalPNO PModel #DecontractAux
#! VerySlowConv 
 %maxcore 5000
 %scf  maxiter   500  end 

%pal
    nprocs 32
end

%basis
    NewGTO O    # New basis for oxygen
        "aug-cc-pVTZ"
    end
    NewGTO C    # New basis for carbon
        "aug-cc-pVTZ"
    end
    NewGTO H    # New basis for hydrogen
        "cc-pVTZ"
    end
end

* xyz 0   1
  C  11.39  12.47  12.39  #1
  H  11.07  13.47  12.16  #2
  H  12.43  12.4  12.31  #3
  C  10.73  11.43  11.43  #4
  H  10.86  10.37  11.89  #5
  H  9.64  11.58  11.44  #6
  C  11.27  11.28  9.98  #7
  H  12.29  10.9  9.96  #8
  H  11.34  12.26  9.54  #9
  C  10.49  10.34  9.02  #10
  H  10.71  10.57  7.99  #11
  H  9.41  10.38  9.14  #12
  O  10.9  8.99  9.28  #13
  H  10.25  8.37  8.84  #14
  O  11.12  12.3  13.83  #15
  H  10.21  12.08  13.85  #16
  O  14.01  9.45  12.72  #17
  H  13.34  8.87  12.36  #18
  H  14.27  10.03  11.96  #19
  O  14.94  12.35  12.86  #20
  H  14.7  13.03  12.22  #21
  H  14.64  12.66  13.74  #22
  O  12.2  13.73  7.43  #23
  H  13.11  13.6  7.8  #24
  H  11.97  14.69  7.4  #25
  O  8.2  13  7.93  #26
  H  7.99  13.2  7.01  #27
  H  8.01  12.08  8.1  #28
  O  9.08  6.59  7.92  #29
  H  10.06  6.35  7.75  #30
  H  8.75  6.86  7.05  #31
  O  13.72  15.56  14.28  #32
  H  12.85  16.03  14.36  #33
  H  13.54  14.71  14.71  #34
  O  6.05  15.58  6.99  #35
  H  6.2  16.49  6.63  #36
  H  6.53  14.94  6.43  #37
  O  10.88  4  9.25  #38
  H  10.27  4.53  9.84  #39
  H  11.29  4.59  8.6  #40
  O  13.48  10.86  6.64  #41
  H  14.04  10.83  5.84  #42
  H  12.53  11.07  6.32  #43
  O  13.5  15.04  4.75  #44
  H  13.53  14.45  3.95  #45
  H  12.97  14.55  5.4  #46
  O  14.5  15.2  11.8  #47
  H  14.07  15.41  12.63  #48
  H  13.75  15.28  11.16  #49
  O  8.92  10.26  5.76  #50
  H  8.64  9.5  5.22  #51
  H  8.35  10.32  6.5  #52
  O  12.05  14.84  10.37  #53
  H  11.15  14.99  10.1  #54
  H  12.29  14.07  9.83  #55
  O  6.84  5.93  9.53  #56
  H  7.51  5.66  8.88  #57
  H  6.28  5.16  9.72  #58
  O  16.3  9.75  14.63  #59
  H  16.83  10.15  13.96  #60
  H  15.51  9.36  14.22  #61
  O  14.39  12.77  8.39  #62
  H  14.35  12.15  7.71  #63
  H  15.24  13.21  8.38  #64
  O  10.09  7.83  11.73  #65
  H  9.85  6.92  11.54  #66
  H  10.42  8.28  10.94  #67
  O  7.02  13.43  10.76  #68
  H  7.37  13.36  9.86  #69
  H  6.11  13.34  10.58  #70
  O  7.18  10.55  8.35  #71
  H  6.69  9.78  8.14  #72
  H  6.99  10.56  9.31  #73
  O  13.45  8.22  10.33  #74
  H  12.61  8.56  9.96  #75
  H  14.02  8.99  10.13  #76
  O  8.25  6.73  5.06  #77
  H  8.78  6.18  4.53  #78
  H  7.83  7.51  4.53  #79
  O  13.19  9.36  15.27  #80
  H  13.56  10.04  15.85  #81
  H  13.44  9.6  14.33  #82
  O  15.18  10.29  10.38  #83
  H  15.14  11.17  10.01  #84
  H  16.07  9.97  10.09  #85
  O  17.63  11.37  12.74  #86
  H  17.93  11.8  13.52  #87
  H  16.71  11.64  12.63  #88
  O  11.15  12.01  5.59  #89
  H  10.28  11.62  5.58  #90
  H  11.14  12.73  6.23  #91
  O  13.23  13.02  15.33  #92
  H  12.51  12.72  14.72  #93
  H  13.69  12.27  15.73  #94
  O  6.97  10.64  11.1  #95
  H  7.49  9.98  11.6  #96
  H  7.15  11.53  11.46  #97
  O  8.71  11.04  14.61  #98
  H  8.35  11.59  15.31  #99
  H  9.4  10.53  14.95  #100
  O  12.42  6.85  13.18  #101
  H  13.01  6.41  12.53  #102
  H  11.57  7.06  12.69  #103
  O  7.96  8.85  13.01  #104
  H  8.79  8.57  12.54  #105
  H  8.04  9.52  13.71  #106
  O  9.72  15.32  9.38  #107
  H  9.13  14.59  9.2  #108
  H  9.09  16  9.63  #109
  O  11.73  5.84  7.31  #110
  H  12.33  6.61  7.44  #111
  H  11.95  5.46  6.46  #112
  O  11.65  16.37  7.14  #113
  H  12.46  16.65  7.55  #114
  H  10.86  16.72  7.58  #115
  O  7.4  13.8  5.36  #116
  H  7.63  14.47  4.68  #117
  H  6.75  13.29  4.87  #118
  Q  0.6645  19.03$  13.36$  17.87$
  Q  0.6645  19.15$  11.8$  17.82$
  Q  -1.3290  18.79$  12.56$  17.65$
  Q  0.6645  16.22$  20.74$  8.27$
  Q  0.6645  16.15$  20.51$  9.91$
  Q  -1.3290  16.14$  20.96$  9.14$
  Q  0.6645  9.67$  5.1$  1.72$
  Q  0.6645  9.37$  3.58$  2.3$
  Q  -1.3290  9.73$  4.38$  2.25$
  Q  0.6645  11.48$  0.69$  5.51$
  Q  0.6645  10.79$  -0.7$  5.52$
  Q  -1.3290  10.87$  0.15$  5.37$
  Q  0.6645  7.08$  9.34$  17.74$
  Q  0.6645  6.14$  10.1$  18.6$
  Q  -1.3290  6.47$  9.86$  17.84$
  Q  0.6645  10.36$  10.99$  20.36$
  Q  0.6645  10.89$  11.67$  21.66$
  Q  -1.3290  10.66$  11.02$  21.19$
  Q  0.6645  10.19$  7.04$  0.71$
  Q  0.6645  9.62$  6.03$  -0.3$
  Q  -1.3290  9.63$  6.47$  0.38$
  Q  0.6645  5.63$  14.57$  18.67$
  Q  0.6645  5.64$  15.08$  20.06$
  Q  -1.3290  5.28$  14.78$  19.4$
  Q  0.6645  10.72$  9.22$  2.68$
  Q  0.6645  9.91$  10.34$  3.4$
  Q  -1.3290  10.12$  9.53$  3.17$
  Q  0.6645  15.78$  10.11$  -0.5$
  Q  0.6645  15.91$  9.51$  0.88$
  Q  -1.3290  15.77$  10.12$  0.31$
  Q  0.6645  8.86$  15.05$  20.91$
  Q  0.6645  9.93$  15.2$  19.92$
  Q  -1.3290  9.13$  15.08$  20.15$
  Q  0.6645  5.71$  18.51$  5.21$
  Q  0.6645  7.16$  18.57$  5.57$
  Q  -1.3290  6.4$  18.22$  5.56$
  Q  0.6645  13.2$  8.47$  4.09$
  Q  0.6645  11.78$  8.23$  4.45$
  Q  -1.3290  12.58$  8.06$  4.49$
  Q  0.6645  13.56$  6.08$  4.42$
  Q  0.6645  14.9$  5.53$  3.72$
  Q  -1.3290  14.24$  5.55$  4.28$
  Q  0.6645  13.67$  0.77$  5.1$
  Q  0.6645  13.75$  2.25$  5.37$
  Q  -1.3290  13.37$  1.53$  5.16$
  Q  0.6645  14.23$  10.36$  18.52$
  Q  0.6645  13.67$  9$  18.51$
  Q  -1.3290  13.62$  9.82$  18.61$
  Q  0.6645  7.27$  9.13$  0.5$
  Q  0.6645  8.12$  7.79$  0.44$
  Q  -1.3290  7.44$  8.3$  0.63$
  Q  0.6645  17.37$  16.44$  15.84$
  Q  0.6645  17.45$  17.92$  16.51$
  Q  -1.3290  17.52$  17.32$  15.89$
  Q  0.6645  12.91$  3.56$  1.77$
  Q  0.6645  11.67$  4.42$  2.11$
  Q  -1.3290  12.42$  4.29$  1.76$
  Q  0.6645  14.95$  12.25$  4.03$
  Q  0.6645  16.17$  11.52$  4.61$
  Q  -1.3290  15.35$  11.61$  4.46$
  Q  0.6645  15.2$  3.89$  6.99$
  Q  0.6645  15.02$  4.38$  5.56$
  Q  -1.3290  15.26$  3.81$  6.17$
  Q  0.6645  11.71$  10.4$  18.71$
  Q  0.6645  10.87$  11.71$  18.34$
  Q  -1.3290  10.99$  10.87$  18.47$
  Q  0.6645  6.49$  20.36$  17.17$
  Q  0.6645  5.86$  19.17$  17.98$
  Q  -1.3290  6.2$  19.56$  17.32$
  Q  0.6645  10.1$  5$  15.6$
  Q  0.6645  8.64$  5.25$  15.08$
  Q  -1.3290  9.24$  5.02$  15.64$
  Q  0.6645  5.2$  11.12$  20.5$
  Q  0.6645  5.53$  9.65$  20.51$
  Q  -1.3290  5.73$  10.45$  20.43$
  Q  0.6645  11.34$  9.27$  15.57$
  Q  0.6645  10.49$  9.69$  16.78$
  Q  -1.3290  10.63$  9.33$  16.02$
  Q  0.6645  14.13$  12.89$  2.11$
  Q  0.6645  15.2$  13.97$  1.92$
  Q  -1.3290  14.63$  13.52$  2.37$
  Q  0.6645  13.78$  11.38$  0.5$
  Q  0.6645  12.54$  11.77$  1.38$
  Q  -1.3290  13.25$  11.35$  1.19$
  Q  0.6645  14.91$  4.06$  16.94$
  Q  0.6645  14.96$  5.24$  15.97$
  Q  -1.3290  15.16$  4.5$  16.24$
  Q  0.6645  16.01$  3.12$  9.39$
  Q  0.6645  14.49$  2.74$  9$
  Q  -1.3290  15.2$  3.26$  9.1$
  Q  0.6645  13.39$  6.05$  1.59$
  Q  0.6645  14.52$  7.14$  1.55$
  Q  -1.3290  13.91$  6.65$  1.24$
  Q  0.6645  20.6$  14.69$  13.74$
  Q  0.6645  19.94$  16.05$  13.51$
  Q  -1.3290  19.96$  15.19$  13.48$
  Q  0.6645  1.13$  9.08$  11.52$
  Q  0.6645  -0.06$  9.63$  12.27$
  Q  -1.3290  0.75$  9.5$  12.12$
  Q  0.6645  1.93$  10.9$  9.37$
  Q  0.6645  1.41$  10.68$  10.88$
  Q  -1.3290  1.85$  11.05$  10.22$
  Q  0.6645  5.01$  12.79$  1.05$
  Q  0.6645  3.94$  12.44$  2.18$
  Q  -1.3290  4.73$  12.61$  1.85$
  Q  0.6645  19.57$  11.02$  6.58$
  Q  0.6645  20.93$  11.7$  6.56$
  Q  -1.3290  20.37$  11.05$  6.43$
  Q  0.6645  5.19$  1.94$  13.01$
  Q  0.6645  6.49$  2.33$  12.29$
  Q  -1.3290  5.96$  2.28$  12.94$
  Q  0.6645  2.4$  13.59$  17.91$
  Q  0.6645  2.17$  12.03$  17.58$
  Q  -1.3290  2.63$  12.79$  17.64$
  Q  0.6645  2.1$  6.15$  8.6$
  Q  0.6645  2.71$  4.95$  7.75$
  Q  -1.3290  2.14$  5.36$  8.21$
  Q  0.6645  7.01$  19.71$  10.38$
  Q  0.6645  7$  18.34$  11.24$
  Q  -1.3290  6.68$  19.1$  10.94$
  Q  0.6645  8.15$  13.72$  1.35$
  Q  0.6645  8.76$  15.02$  1.73$
  Q  -1.3290  8.26$  14.53$  1.26$
  Q  0.6645  4.31$  12.4$  11.71$
  Q  0.6645  3.65$  12.3$  10.42$
  Q  -1.3290  4.16$  12.64$  10.93$
  Q  0.6645  13.54$  20.25$  16.27$
  Q  0.6645  12.47$  19.58$  17.09$
  Q  -1.3290  13.13$  20.1$  16.98$
  Q  0.6645  6.83$  11.69$  16.78$
  Q  0.6645  6.13$  12.96$  16.28$
  Q  -1.3290  6.8$  12.47$  16.46$
  Q  0.6645  3.61$  9.68$  4.04$
  Q  0.6645  2.13$  9.52$  4.19$
  Q  -1.3290  2.93$  9.3$  4.32$
  Q  0.6645  3.19$  12.41$  20.91$
  Q  0.6645  4.22$  13.21$  20.23$
  Q  -1.3290  3.97$  12.6$  20.74$
  Q  0.6645  15.09$  15.82$  15.92$
  Q  0.6645  16.23$  14.88$  16.17$
  Q  -1.3290  15.69$  15.51$  16.35$
  Q  0.6645  5.02$  8.53$  14.35$
  Q  0.6645  5.79$  8.86$  13.09$
  Q  -1.3290  5.13$  8.89$  13.59$
  Q  0.6645  16.07$  15.36$  7.44$
  Q  0.6645  17.13$  14.92$  8.48$
  Q  -1.3290  16.5$  14.81$  7.9$
  Q  0.6645  1.8$  15.26$  15.9$
  Q  0.6645  1.46$  15.1$  14.39$
  Q  -1.3290  1.88$  15.41$  15.07$
  Q  0.6645  19.18$  6.81$  12.39$
  Q  0.6645  20.08$  7.1$  11.2$
  Q  -1.3290  19.77$  6.61$  11.83$
  Q  0.6645  13.35$  0.93$  7.59$
  Q  0.6645  14.59$  0.57$  8.4$
  Q  -1.3290  13.82$  0.82$  8.27$
  Q  0.6645  17.23$  8.03$  5.96$
  Q  0.6645  16.98$  6.81$  5.19$
  Q  -1.3290  17.46$  7.38$  5.49$
  Q  0.6645  13.55$  18.22$  8.85$
  Q  0.6645  14.42$  17.02$  9.09$
  Q  -1.3290  13.98$  17.52$  8.63$
  Q  0.6645  2.73$  16.83$  13.68$
  Q  0.6645  1.87$  17.75$  12.9$
  Q  -1.3290  2.56$  17.3$  13.02$
  Q  0.6645  1.95$  5.5$  12.64$
  Q  0.6645  2.39$  4.7$  11.36$
  Q  -1.3290  2.48$  5.27$  12$
  Q  0.6645  9.22$  7.99$  16.42$
  Q  0.6645  8.62$  6.75$  16.92$
  Q  -1.3290  8.66$  7.56$  16.85$
  Q  0.6645  3.86$  13.6$  16.34$
  Q  0.6645  3.99$  14.39$  15.14$
  Q  -1.3290  4.21$  13.77$  15.61$
  Q  0.6645  9.88$  1.62$  6.29$
  Q  0.6645  10.23$  2.86$  7.23$
  Q  -1.3290  9.81$  2.15$  6.96$
  Q  0.6645  13.83$  9.92$  2.13$
  Q  0.6645  14.65$  10.05$  3.39$
  Q  -1.3290  14.18$  9.62$  2.86$
  Q  0.6645  17.79$  11.64$  8.38$
  Q  0.6645  17.15$  10.7$  7.28$
  Q  -1.3290  17.57$  11.43$  7.58$
  Q  0.6645  17.7$  8.29$  20.25$
  Q  0.6645  16.29$  8.21$  19.59$
  Q  -1.3290  16.86$  8.15$  20.25$
  Q  0.6645  8.64$  1.35$  14.76$
  Q  0.6645  9.55$  0.25$  14.25$
  Q  -1.3290  9.2$  1.01$  14.24$
  Q  0.6645  2.68$  13.79$  5.72$
  Q  0.6645  2.89$  12.24$  6.15$
  Q  -1.3290  2.52$  12.93$  5.76$
  Q  0.6645  13.33$  9.15$  7.24$
  Q  0.6645  13.14$  8.03$  6.27$
  Q  -1.3290  13.31$  8.31$  7.04$
  Q  0.6645  17$  12.26$  18.59$
  Q  0.6645  15.75$  12.38$  19.56$
  Q  -1.3290  16.17$  12.06$  18.89$
  Q  0.6645  18.67$  13.02$  10.22$
  Q  0.6645  18.45$  11.74$  11.05$
  Q  -1.3290  18.49$  12.21$  10.34$
  Q  0.6645  19.59$  15.13$  9.77$
  Q  0.6645  18.15$  15.81$  9.97$
  Q  -1.3290  18.73$  15.24$  9.64$
  Q  0.6645  16.51$  8.78$  7.95$
  Q  0.6645  15.48$  8.74$  6.89$
  Q  -1.3290  16.2$  8.97$  7.2$
  Q  0.6645  5$  10.95$  13.61$
  Q  0.6645  4.45$  12.5$  13.95$
  Q  -1.3290  4.62$  11.75$  13.5$
  Q  0.6645  16.71$  7.14$  13.28$
  Q  0.6645  17.56$  8.19$  12.56$
  Q  -1.3290  17.44$  7.53$  13.09$
  Q  0.6645  10.18$  12.79$  1.9$
  Q  0.6645  11.27$  13.81$  1.4$
  Q  -1.3290  10.85$  13.02$  1.47$
  Q  0.6645  1.78$  17.2$  8.81$
  Q  0.6645  2.65$  16.01$  9.26$
  Q  -1.3290  2$  16.39$  8.89$
  Q  0.6645  7.13$  16.69$  12.92$
  Q  0.6645  7.09$  16.11$  11.48$
  Q  -1.3290  7.24$  16.67$  12.08$
  Q  0.6645  5.06$  8.51$  16.7$
  Q  0.6645  5.39$  7.12$  16.15$
  Q  -1.3290  4.99$  7.87$  16.18$
  Q  0.6645  3.4$  19.26$  12.31$
  Q  0.6645  4.76$  19.81$  11.88$
  Q  -1.3290  3.94$  19.83$  12.03$
  Q  0.6645  14.07$  16.09$  19.7$
  Q  0.6645  14.54$  15.71$  18.29$
  Q  -1.3290  14.03$  15.67$  18.99$
  Q  0.6645  8.59$  19.66$  4.4$
  Q  0.6645  8.14$  20.35$  5.72$
  Q  -1.3290  8.48$  19.75$  5.22$
  Q  0.6645  13.28$  22.11$  13.84$
  Q  0.6645  12.91$  21.95$  15.36$
  Q  -1.3290  13.07$  21.72$  14.55$
  Q  0.6645  4.99$  11.42$  6.12$
  Q  0.6645  5.3$  11.42$  7.51$
  Q  -1.3290  4.8$  11.43$  6.89$
  Q  0.6645  6.36$  2.26$  6.95$
  Q  0.6645  7.78$  2.06$  7.56$
  Q  -1.3290  6.95$  2.21$  7.59$
  Q  0.6645  16.61$  17.52$  10.6$
  Q  0.6645  15.77$  16.23$  10.81$
  Q  -1.3290  16.29$  16.77$  10.42$
  Q  0.6645  7.52$  13.8$  12.48$
  Q  0.6645  6.95$  13.03$  13.61$
  Q  -1.3290  7.37$  13.67$  13.28$
  Q  0.6645  2.76$  15.73$  7.2$
  Q  0.6645  4.29$  15.44$  6.81$
  Q  -1.3290  3.41$  15.42$  6.73$
  Q  0.6645  20.26$  12.25$  14.53$
  Q  0.6645  19.5$  11.58$  15.73$
  Q  -1.3290  19.68$  11.75$  14.92$
  Q  0.6645  12.48$  4.59$  4.25$
  Q  0.6645  10.99$  4.41$  4.21$
  Q  -1.3290  11.69$  4.67$  4.53$
  Q  0.6645  17.63$  15.45$  4.57$
  Q  0.6645  16.88$  16.69$  4.75$
  Q  -1.3290  17.46$  16.23$  4.41$
  Q  0.6645  11.42$  17.29$  3.82$
  Q  0.6645  11.36$  16.7$  5.21$
  Q  -1.3290  11.08$  17.18$  4.59$
  Q  0.6645  7.85$  13.97$  17.14$
  Q  0.6645  8.38$  14.68$  18.42$
  Q  -1.3290  7.95$  14.63$  17.69$
  Q  0.6645  9.31$  16.15$  4.07$
  Q  0.6645  7.78$  16.64$  3.84$
  Q  -1.3290  8.45$  16.08$  3.86$
  Q  0.6645  13.21$  4.13$  12.07$
  Q  0.6645  11.82$  4.12$  11.36$
  Q  -1.3290  12.39$  4.05$  12$
  Q  0.6645  13.77$  17.99$  2.59$
  Q  0.6645  13.8$  17.06$  3.83$
  Q  -1.3290  13.53$  17.34$  3.08$
  Q  0.6645  3.74$  16.29$  11.48$
  Q  0.6645  4.25$  14.95$  10.99$
  Q  -1.3290  4.1$  15.75$  10.94$
  Q  0.6645  8.3$  0.55$  12.52$
  Q  0.6645  8.7$  1.04$  11.19$
  Q  -1.3290  8.16$  0.73$  11.69$
  Q  0.6645  8.99$  14.74$  14.6$
  Q  0.6645  9.68$  14.58$  16.05$
  Q  -1.3290  9.45$  14.96$  15.3$
  Q  0.6645  6.61$  19.4$  13.96$
  Q  0.6645  7.47$  19.97$  12.89$
  Q  -1.3290  7.2$  19.89$  13.66$
  Q  0.6645  1.31$  10.78$  13.86$
  Q  0.6645  2.75$  10.96$  13.99$
  Q  -1.3290  1.98$  11.05$  14.25$
  Q  0.6645  13.26$  0.08$  10.91$
  Q  0.6645  12.86$  1.31$  11.7$
  Q  -1.3290  13.2$  0.54$  11.59$
  Q  0.6645  8.44$  3.86$  17.24$
  Q  0.6645  8.29$  2.63$  18.23$
  Q  -1.3290  8.23$  3.48$  17.97$
  Q  0.6645  5.44$  18.8$  15.73$
  Q  0.6645  5.69$  17.47$  15.2$
  Q  -1.3290  5.29$  18.21$  15.2$
  Q  0.6645  21.12$  8.51$  9.46$
  Q  0.6645  20.13$  9.21$  10.61$
  Q  -1.3290  20.49$  8.54$  10.05$
  Q  0.6645  5.31$  9.59$  10.77$
  Q  0.6645  4.07$  8.84$  11.49$
  Q  -1.3290  4.53$  9.21$  10.81$
  Q  0.6645  7.8$  20.98$  8.44$
  Q  0.6645  8.59$  19.69$  8.71$
  Q  -1.3290  8.23$  20.42$  8.91$
  Q  0.6645  5$  3.18$  10.53$
  Q  0.6645  6.35$  2.93$  9.61$
  Q  -1.3290  5.72$  3.38$  10.06$
  Q  0.6645  20.24$  7.84$  15.6$
  Q  0.6645  18.91$  8.46$  14.92$
  Q  -1.3290  19.55$  8.34$  15.5$
  Q  0.6645  8.71$  17.84$  19.51$
  Q  0.6645  8.61$  19.15$  20.45$
  Q  -1.3290  8.76$  18.32$  20.24$
  Q  0.6645  11.29$  5.86$  18.72$
  Q  0.6645  11.91$  6$  17.47$
  Q  -1.3290  11.89$  6.14$  18.27$
  Q  0.6645  16.69$  19.59$  12.55$
  Q  0.6645  15.21$  19.92$  12.18$
  Q  -1.3290  16.06$  19.87$  12.05$
  Q  0.6645  5.7$  7.66$  8.61$
  Q  0.6645  4.8$  8.84$  8.29$
  Q  -1.3290  5.43$  8.32$  8.17$
  Q  0.6645  15.54$  11.36$  17.23$
  Q  0.6645  15.53$  10.82$  15.7$
  Q  -1.3290  15.21$  11.14$  16.44$
  Q  0.6645  17$  7.71$  9.83$
  Q  0.6645  18.39$  8.44$  9.48$
  Q  -1.3290  17.56$  8.37$  9.68$
  Q  0.6645  8.34$  5.66$  10.67$
  Q  0.6645  8.49$  5.25$  12.1$
  Q  -1.3290  8.73$  5.35$  11.32$
  Q  0.6645  7.27$  16.46$  20.84$
  Q  0.6645  6.37$  15.85$  22.02$
  Q  -1.3290  6.55$  16.26$  21.29$
  Q  0.6645  14.79$  17.23$  6.67$
  Q  0.6645  14.7$  15.93$  5.64$
  Q  -1.3290  15.02$  16.68$  5.99$
  Q  0.6645  7.8$  16.51$  15.47$
  Q  0.6645  6.7$  15.59$  15.19$
  Q  -1.3290  7.04$  16.32$  15.18$
  Q  0.6645  9.92$  18.31$  17.16$
  Q  0.6645  11.03$  17.9$  16.17$
  Q  -1.3290  10.7$  18.36$  16.82$
  Q  0.6645  17.74$  15.33$  20.86$
  Q  0.6645  17.33$  15.36$  19.38$
  Q  -1.3290  17.23$  15.44$  20.19$
  Q  0.6645  18.2$  18.51$  14.24$
  Q  0.6645  19.01$  18.6$  12.86$
  Q  -1.3290  18.5$  18.88$  13.51$
  Q  0.6645  14.06$  7.55$  15.22$
  Q  0.6645  14.17$  6.47$  14.07$
  Q  -1.3290  14.38$  6.85$  14.83$
  Q  0.6645  6.42$  0.39$  10.55$
  Q  0.6645  6.1$  0.68$  9.19$
  Q  -1.3290  5.96$  0.31$  9.9$
  Q  0.6645  10.74$  16.42$  14.61$
  Q  0.6645  11.29$  17.63$  13.89$
  Q  -1.3290  11.16$  17.14$  14.55$
  Q  0.6645  7.7$  1.67$  2.05$
  Q  0.6645  6.83$  2.8$  2.72$
  Q  -1.3290  7.4$  2.17$  2.68$
  Q  0.6645  4.98$  3.77$  7.86$
  Q  0.6645  4.83$  4.85$  6.86$
  Q  -1.3290  4.57$  4.2$  7.32$
  Q  0.6645  15.78$  2.4$  13.18$
  Q  0.6645  15.49$  3.13$  14.47$
  Q  -1.3290  15.53$  3.05$  13.65$
  Q  0.6645  11.68$  16.12$  0.89$
  Q  0.6645  12.66$  15.74$  1.85$
  Q  -1.3290  12.03$  15.56$  1.36$
  Q  0.6645  5.7$  7.05$  19.63$
  Q  0.6645  5.97$  7.52$  20.99$
  Q  -1.3290  5.54$  7.53$  20.3$
  Q  0.6645  11.68$  13.54$  16.66$
  Q  0.6645  10.75$  14.44$  17.54$
  Q  -1.3290  11$  13.74$  17.12$
  Q  0.6645  8.07$  11.66$  2.46$
  Q  0.6645  8.4$  12.62$  3.72$
  Q  -1.3290  8.54$  12.2$  2.98$
  Q  0.6645  11.81$  19.44$  7.18$
  Q  0.6645  11.46$  18.8$  5.77$
  Q  -1.3290  11.62$  19.43$  6.33$
  Q  0.6645  6.75$  17.14$  9.68$
  Q  0.6645  6.58$  16.27$  8.47$
  Q  -1.3290  7.05$  16.63$  9.09$
  Q  0.6645  6.7$  6.43$  17.62$
  Q  0.6645  5.91$  5.13$  17.61$
  Q  -1.3290  6.09$  5.89$  17.89$
  Q  0.6645  15.68$  19.08$  17.1$
  Q  0.6645  16.6$  20.04$  17.95$
  Q  -1.3290  16.26$  19.28$  17.68$
  Q  0.6645  7.52$  17.89$  16.95$
  Q  0.6645  8.38$  16.59$  17.47$
  Q  -1.3290  8.19$  17.38$  17.17$
  Q  0.6645  15.62$  13.9$  21.06$
  Q  0.6645  14.33$  13.65$  20.2$
  Q  -1.3290  14.98$  13.43$  20.71$
  Q  0.6645  6.54$  6.2$  5.6$
  Q  0.6645  5.49$  7.07$  6.45$
  Q  -1.3290  5.75$  6.46$  5.9$
  Q  0.6645  19.07$  15.52$  7.31$
  Q  0.6645  19.04$  15.16$  5.81$
  Q  -1.3290  19.33$  15.54$  6.51$
  Q  0.6645  4.64$  17.04$  9.61$
  Q  0.6645  4.92$  18.42$  9.91$
  Q  -1.3290  4.8$  17.81$  9.38$
  Q  0.6645  12.26$  8.09$  0.62$
  Q  0.6645  11.24$  9.16$  0.23$
  Q  -1.3290  11.54$  8.54$  0.68$
  Q  0.6645  11.25$  17.03$  11.32$
  Q  0.6645  11.12$  18.49$  11.78$
  Q  -1.3290  11.38$  17.67$  11.82$
  Q  0.6645  4.47$  9.17$  1.72$
  Q  0.6645  4.65$  10.7$  1.6$
  Q  -1.3290  4.67$  9.94$  1.99$
  Q  0.6645  18.49$  14.62$  14.92$
  Q  0.6645  18.12$  13.5$  15.95$
  Q  -1.3290  17.98$  14.22$  15.48$
  Q  0.6645  19.4$  8.41$  2.9$
  Q  0.6645  18.18$  8.42$  3.97$
  Q  -1.3290  18.67$  8.68$  3.3$
  Q  0.6645  17.57$  13.24$  6.13$
  Q  0.6645  18.23$  13.1$  4.68$
  Q  -1.3290  17.87$  13.51$  5.36$
  Q  0.6645  14.75$  6.96$  9.54$
  Q  0.6645  15.27$  5.52$  9.35$
  Q  -1.3290  15.3$  6.33$  9.59$
  Q  0.6645  5.37$  4.04$  13.39$
  Q  0.6645  4.29$  5.16$  13.06$
  Q  -1.3290  4.94$  4.79$  13.49$
  Q  0.6645  15.21$  4.83$  12.57$
  Q  0.6645  15.08$  5.89$  11.41$
  Q  -1.3290  14.83$  5.4$  12.09$
  Q  0.6645  8.84$  11.18$  0.23$
  Q  0.6645  7.38$  11.23$  -0.31$
  Q  -1.3290  8$  11.36$  0.24$
  Q  0.6645  19.32$  10.48$  12.67$
  Q  0.6645  20.42$  11.09$  11.71$
  Q  -1.3290  19.99$  10.47$  12.11$
  Q  0.6645  10.03$  1.28$  8.72$
  Q  0.6645  9.16$  0.25$  9.3$
  Q  -1.3290  9.81$  0.75$  9.31$
  Q  0.6645  12.96$  18.33$  12.78$
  Q  0.6645  13.08$  19.65$  13.58$
  Q  -1.3290  13.36$  18.98$  13.14$
  Q  0.6645  1.8$  9.18$  7.56$
  Q  0.6645  3.12$  10.01$  7.12$
  Q  -1.3290  2.54$  9.65$  7.65$
  Q  0.6645  5.39$  11.94$  3.65$
  Q  0.6645  6.26$  10.66$  4.21$
  Q  -1.3290  5.84$  11.46$  4.22$
  Q  0.6645  15.27$  7.63$  17.63$
  Q  0.6645  13.89$  7.05$  18.18$
  Q  -1.3290  14.73$  7.31$  18.2$
  Q  0.6645  6.45$  9$  2.74$
  Q  0.6645  7.89$  9.07$  2.92$
  Q  -1.3290  7.11$  9.04$  3.19$
  Q  0.6645  11.94$  3.29$  13.84$
  Q  0.6645  10.73$  2.72$  14.37$
  Q  -1.3290  11.49$  2.99$  14.47$
  Q  0.6645  14.45$  18.35$  14.85$
  Q  0.6645  15.88$  17.97$  15.43$
  Q  -1.3290  15.1$  18.32$  15.42$
  Q  0.6645  11.25$  20.74$  12.25$
  Q  0.6645  10.33$  20.68$  10.93$
  Q  -1.3290  10.95$  20.41$  11.48$
  Q  0.6645  8.36$  17.76$  8.19$
  Q  0.6645  9.16$  18.51$  6.96$
  Q  -1.3290  9.03$  18.12$  7.74$
  Q  0.6645  17.52$  7.49$  17.27$
  Q  0.6645  16.88$  8.45$  16.25$
  Q  -1.3290  17.02$  8.14$  17.03$
  Q  0.6645  16.9$  6.2$  2.55$
  Q  0.6645  17.33$  4.95$  3.42$
  Q  -1.3290  16.9$  5.7$  3.24$
  Q  0.6645  7.51$  7.06$  13.55$
  Q  0.6645  6.56$  5.86$  13.61$
  Q  -1.3290  7.31$  6.25$  13.61$
  Q  0.6645  12.27$  4.6$  15.49$
  Q  0.6645  12.03$  5.99$  15.19$
  Q  -1.3290  11.96$  5.35$  15.68$
  Q  0.6645  9.54$  19.68$  14.17$
  Q  0.6645  10.8$  20.48$  14.85$
  Q  -1.3290  10.21$  20.23$  14.24$
  Q  0.6645  2.07$  6.76$  10.72$
  Q  0.6645  2.81$  7.89$  9.79$
  Q  -1.3290  2.16$  7.41$  10.15$
  Q  0.6645  3.7$  6.07$  5.17$
  Q  0.6645  3.13$  7.36$  4.58$
  Q  -1.3290  3.09$  6.55$  4.78$
  Q  0.6645  11.96$  20$  9.94$
  Q  0.6645  12.77$  20.71$  8.8$
  Q  -1.3290  12.47$  20.04$  9.24$
  Q  0.6645  12.19$  15.87$  18.85$
  Q  0.6645  11.33$  16.98$  18.13$
  Q  -1.3290  11.49$  16.24$  18.55$
*
