! NoMOPrint PrintBasis #MINIPRINT SMALLPRINT LARGEPRINT
! ALLPOP XYZFILE
#! BP86 3-21G   TightSCF
! ENGRAD
! B3LYP NormalPNO PModel #DecontractAux
#! VerySlowConv 
 %maxcore 5000
 %scf  maxiter   500  end 

%pal
    nprocs 32
end

%basis
    NewGTO O    # New basis for oxygen
        "aug-cc-pVTZ"
    end
    NewGTO C    # New basis for carbon
        "aug-cc-pVTZ"
    end
    NewGTO H    # New basis for hydrogen
        "cc-pVTZ"
    end
end

* xyz 0   1
  C  10  12.23  11.96  #1
  H  9.14  12.5  11.33  #2
  H  10.24  13.16  12.46  #3
  C  11.18  11.69  11.28  #4
  H  11.7  12.4  10.71  #5
  H  11.93  11.42  12.03  #6
  C  10.82  10.6  10.29  #7
  H  9.83  10.93  9.8  #8
  H  10.63  9.65  10.77  #9
  C  11.94  10.48  9.22  #10
  H  12.88  10.24  9.71  #11
  H  11.92  11.44  8.68  #12
  O  11.63  9.43  8.24  #13
  H  11.86  8.58  8.68  #14
  O  9.58  11.36  13.04  #15
  H  8.86  11.86  13.5  #16
  O  15.57  9.03  8.8  #17
  H  14.92  8.79  8.11  #18
  H  15.43  8.48  9.58  #19
  O  6.52  11.02  14.08  #20
  H  6.74  11.94  14.18  #21
  H  5.77  11.12  13.47  #22
  O  13  11.61  14.04  #23
  H  12.11  11.36  14.33  #24
  H  13.53  11.11  14.73  #25
  O  14.87  12.31  12.05  #26
  H  14.3  11.83  12.67  #27
  H  15.68  11.87  12.28  #28
  O  8.14  13.87  14.64  #29
  H  7.69  13.81  15.45  #30
  H  8.11  14.77  14.33  #31
  O  13.74  13.04  7.57  #32
  H  14.55  12.93  8.13  #33
  H  13.14  13.59  8.13  #34
  O  12.27  6.98  9.29  #35
  H  11.87  6.33  9.86  #36
  H  12.88  6.55  8.71  #37
  O  9.92  15.28  10.02  #38
  H  9.38  14.94  10.81  #39
  H  9.49  16.11  9.84  #40
  O  6.75  13.27  17.19  #41
  H  6.42  14.06  17.64  #42
  H  5.96  12.79  16.92  #43
  O  10.21  12.31  6.89  #44
  H  11.09  12.3  6.46  #45
  H  9.87  11.39  6.98  #46
  O  12.72  12.02  5.2  #47
  H  13.13  12.01  6.07  #48
  H  12.99  12.84  4.82  #49
  O  17.79  7.85  7.01  #50
  H  18.37  8.31  6.35  #51
  H  17.5  8.53  7.68  #52
  O  14.08  8.85  6.35  #53
  H  13.21  8.84  5.94  #54
  H  14.51  7.97  6.06  #55
  O  9.13  9.6  7.23  #56
  H  9.14  9.39  6.3  #57
  H  10.03  9.5  7.57  #58
  O  15.64  8.02  11.26  #59
  H  14.91  7.62  11.86  #60
  H  16.43  7.49  11.24  #61
  O  11.34  14.91  14.45  #62
  H  11.46  15.41  15.26  #63
  H  10.61  14.29  14.55  #64
  O  10.6  8.77  13.62  #65
  H  10.33  8.84  14.54  #66
  H  10.42  9.68  13.25  #67
  O  7.07  9.22  16.19  #68
  H  7.23  9.55  17.11  #69
  H  6.97  10.02  15.65  #70
  O  13.86  10.6  16.38  #71
  H  14.04  11.28  17.01  #72
  H  14.57  9.98  16.72  #73
  O  7.96  16.59  13.64  #74
  H  7.54  16.82  14.44  #75
  H  8.91  16.76  13.88  #76
  O  14.03  14.12  15.25  #77
  H  14.97  13.88  14.97  #78
  H  13.46  13.39  15.02  #79
  O  13.78  15.13  12.72  #80
  H  13.25  14.9  13.53  #81
  H  14.16  14.31  12.4  #82
  O  15.61  11.81  9.3  #83
  H  15.26  11.89  10.19  #84
  H  15.56  10.83  9.06  #85
  O  7.36  14.74  11.38  #86
  H  6.65  14.08  11.43  #87
  H  7.08  15.43  11.96  #88
  O  4.59  9.95  11.67  #89
  H  5.32  9.34  11.56  #90
  H  3.99  9.79  10.94  #91
  O  5.64  12.58  11.34  #92
  H  5.41  11.63  11.24  #93
  H  4.77  13  11.46  #94
  O  16.92  10.21  12.6  #95
  H  17.47  10.63  11.92  #96
  H  16.49  9.41  12.29  #97
  O  10.54  11.86  16.63  #98
  H  9.9  12.24  15.97  #99
  H  10.48  12.38  17.4  #100
  Q  0.6645  9.67$  6.24$  17.47$
  Q  0.6645  10.68$  6.36$  18.57$
  Q  -1.3290  10.15$  5.95$  18.07$
  Q  0.6645  11.18$  14.53$  6.44$
  Q  0.6645  10.38$  14.81$  5.11$
  Q  -1.3290  11$  14.94$  5.69$
  Q  0.6645  15.56$  13.9$  4$
  Q  0.6645  16.33$  12.65$  3.51$
  Q  -1.3290  16.02$  13.44$  3.45$
  Q  0.6645  10.75$  16.07$  21.48$
  Q  0.6645  11.7$  14.84$  21$
  Q  -1.3290  11.47$  15.58$  21.39$
  Q  0.6645  17.68$  6.23$  8.13$
  Q  0.6645  17.37$  4.88$  8.91$
  Q  -1.3290  17.78$  5.61$  8.71$
  Q  0.6645  16.49$  2.77$  8.48$
  Q  0.6645  17.77$  2.78$  9.3$
  Q  -1.3290  17.3$  2.61$  8.64$
  Q  0.6645  8.89$  0.78$  13.55$
  Q  0.6645  10.22$  0.65$  14.39$
  Q  -1.3290  9.44$  0.39$  14.05$
  Q  0.6645  14.49$  13.76$  18.14$
  Q  0.6645  15.65$  12.94$  17.88$
  Q  -1.3290  14.87$  13.05$  18.06$
  Q  0.6645  12.38$  6.53$  15.47$
  Q  0.6645  13.45$  6.9$  14.35$
  Q  -1.3290  13.09$  6.89$  15.14$
  Q  0.6645  7.34$  15.69$  9.69$
  Q  0.6645  7.44$  16.39$  8.36$
  Q  -1.3290  7.25$  16.33$  9.16$
  Q  0.6645  18.16$  11.41$  7.63$
  Q  0.6645  18.88$  10.17$  6.96$
  Q  -1.3290  18.58$  10.64$  7.61$
  Q  0.6645  12.42$  7.52$  20.02$
  Q  0.6645  11.95$  8.27$  18.84$
  Q  -1.3290  12.04$  7.61$  19.29$
  Q  0.6645  19.85$  9.85$  13.68$
  Q  0.6645  20.67$  11.06$  13.55$
  Q  -1.3290  19.95$  10.66$  13.64$
  Q  0.6645  21.01$  4.81$  7.72$
  Q  0.6645  19.58$  5.27$  7.44$
  Q  -1.3290  20.42$  5.35$  7.44$
  Q  0.6645  8.55$  8.1$  16.3$
  Q  0.6645  10.01$  8.19$  16.73$
  Q  -1.3290  9.36$  7.89$  16.28$
  Q  0.6645  7.9$  12.23$  -0.29$
  Q  0.6645  9.14$  11.29$  -0.2$
  Q  -1.3290  8.4$  11.63$  0.05$
  Q  0.6645  4.7$  18.23$  9.92$
  Q  0.6645  6.2$  18.17$  9.9$
  Q  -1.3290  5.47$  18.5$  10.12$
  Q  0.6645  8.74$  18.4$  19.18$
  Q  0.6645  7.26$  18.74$  18.65$
  Q  -1.3290  8.15$  18.7$  18.6$
  Q  0.6645  14.59$  16.57$  13.55$
  Q  0.6645  15.46$  17.8$  13.87$
  Q  -1.3290  15.09$  17.06$  14.03$
  Q  0.6645  15.39$  17.56$  19.69$
  Q  0.6645  14.88$  18.15$  18.32$
  Q  -1.3290  15.09$  18.19$  19.18$
  Q  0.6645  4.54$  14.55$  7.09$
  Q  0.6645  3.8$  15.67$  6.26$
  Q  -1.3290  4.45$  15.32$  6.74$
  Q  0.6645  12.77$  0.39$  7.98$
  Q  0.6645  11.75$  1.28$  7.2$
  Q  -1.3290  12.09$  0.92$  7.89$
  Q  0.6645  9.65$  17.94$  5.73$
  Q  0.6645  10.69$  16.96$  6.02$
  Q  -1.3290  10.42$  17.72$  5.82$
  Q  0.6645  5.63$  7.62$  2.37$
  Q  0.6645  5.1$  6.2$  2.01$
  Q  -1.3290  5.47$  6.78$  2.51$
  Q  0.6645  12.57$  14.84$  4.56$
  Q  0.6645  13.31$  14.87$  3.29$
  Q  -1.3290  13.22$  14.64$  4.08$
  Q  0.6645  6.51$  2.2$  7.4$
  Q  0.6645  6.3$  3.25$  8.44$
  Q  -1.3290  6.56$  2.52$  8.17$
  Q  0.6645  2.67$  14.34$  9.15$
  Q  0.6645  2.32$  15.83$  9.14$
  Q  -1.3290  2.16$  15.01$  9.25$
  Q  0.6645  0.08$  15.45$  17.57$
  Q  0.6645  1.57$  15.37$  16.93$
  Q  -1.3290  0.93$  15.27$  17.51$
  Q  0.6645  7.54$  9.69$  0.4$
  Q  0.6645  7.75$  8.57$  1.48$
  Q  -1.3290  7.32$  8.99$  0.84$
  Q  0.6645  8.11$  19.06$  4.43$
  Q  0.6645  8.07$  19.33$  5.99$
  Q  -1.3290  7.99$  18.87$  5.26$
  Q  0.6645  5.69$  10.61$  1.8$
  Q  0.6645  4.7$  10.01$  0.75$
  Q  -1.3290  4.93$  10.43$  1.49$
  Q  0.6645  10.89$  13.33$  2.65$
  Q  0.6645  11.12$  11.82$  2.39$
  Q  -1.3290  11.23$  12.65$  2.29$
  Q  0.6645  13.53$  4.04$  16.56$
  Q  0.6645  14.21$  5.3$  15.85$
  Q  -1.3290  14.06$  4.47$  16.03$
  Q  0.6645  16.24$  11.58$  6.89$
  Q  0.6645  15.47$  10.46$  6.16$
  Q  -1.3290  15.78$  11.25$  6.26$
  Q  0.6645  14.79$  3.8$  3.47$
  Q  0.6645  13.59$  4.5$  2.71$
  Q  -1.3290  14.08$  3.83$  3.01$
  Q  0.6645  9.7$  19.67$  9.37$
  Q  0.6645  8.45$  20.3$  9.72$
  Q  -1.3290  8.99$  19.71$  9.79$
  Q  0.6645  5.6$  6.17$  19.56$
  Q  0.6645  6.6$  6.72$  20.47$
  Q  -1.3290  5.87$  6.43$  20.28$
  Q  0.6645  12.46$  0.77$  14.45$
  Q  0.6645  11.99$  2.03$  15.22$
  Q  -1.3290  11.91$  1.39$  14.64$
  Q  0.6645  15.47$  2.26$  14.9$
  Q  0.6645  14.87$  2.1$  13.47$
  Q  -1.3290  15.51$  2.21$  14.06$
  Q  0.6645  8.06$  1.58$  5.86$
  Q  0.6645  7.15$  2.08$  4.77$
  Q  -1.3290  7.33$  1.68$  5.5$
  Q  0.6645  16.38$  13.91$  6.08$
  Q  0.6645  14.99$  14.44$  6.47$
  Q  -1.3290  15.72$  14.43$  6$
  Q  0.6645  6.94$  6.08$  3.41$
  Q  0.6645  8.41$  5.35$  3.5$
  Q  -1.3290  7.64$  5.69$  3.77$
  Q  0.6645  17.5$  13.63$  16.53$
  Q  0.6645  18.07$  13.02$  17.8$
  Q  -1.3290  17.56$  13.01$  17.15$
  Q  0.6645  14.1$  2.74$  9.68$
  Q  0.6645  14.18$  2.62$  8.25$
  Q  -1.3290  14.4$  2.96$  8.97$
  Q  0.6645  19.03$  6.8$  4.21$
  Q  0.6645  17.73$  6.18$  3.64$
  Q  -1.3290  18.26$  6.8$  3.86$
  Q  0.6645  13.5$  9.17$  2.81$
  Q  0.6645  12.58$  8.5$  1.65$
  Q  -1.3290  12.86$  8.63$  2.46$
  Q  0.6645  11.97$  20.17$  9.16$
  Q  0.6645  10.85$  20.23$  8.02$
  Q  -1.3290  11.26$  19.91$  8.7$
  Q  0.6645  16.75$  15.38$  14.57$
  Q  0.6645  17.35$  13.95$  14.55$
  Q  -1.3290  16.97$  14.63$  14.87$
  Q  0.6645  7.8$  17.96$  16.67$
  Q  0.6645  6.38$  17.3$  16.57$
  Q  -1.3290  7.2$  17.47$  16.32$
  Q  0.6645  4.49$  21.81$  12.22$
  Q  0.6645  5.52$  20.67$  12.19$
  Q  -1.3290  5.24$  21.47$  12.14$
  Q  0.6645  19.52$  17.69$  12.3$
  Q  0.6645  18.65$  18.8$  11.57$
  Q  -1.3290  18.9$  18$  11.8$
  Q  0.6645  15.64$  3.1$  5.66$
  Q  0.6645  17.09$  3.37$  5.09$
  Q  -1.3290  16.26$  3.55$  5.26$
  Q  0.6645  15.27$  0.95$  10.85$
  Q  0.6645  16.18$  0.83$  9.63$
  Q  -1.3290  15.73$  0.54$  10.27$
  Q  0.6645  5.63$  18.67$  12.14$
  Q  0.6645  6.69$  18.33$  13.18$
  Q  -1.3290  6.01$  18.74$  12.87$
  Q  0.6645  14.31$  11.72$  21.25$
  Q  0.6645  14.54$  12.03$  19.67$
  Q  -1.3290  14.66$  11.67$  20.45$
  Q  0.6645  13.4$  0.97$  11.35$
  Q  0.6645  12.81$  2.23$  12.01$
  Q  -1.3290  13.45$  1.75$  11.65$
  Q  0.6645  4.34$  7.74$  9.87$
  Q  0.6645  5.57$  7.44$  10.59$
  Q  -1.3290  4.83$  7.27$  10.36$
  Q  0.6645  12.57$  5.83$  4.27$
  Q  0.6645  12.59$  6.74$  3.14$
  Q  -1.3290  12.5$  5.99$  3.47$
  Q  0.6645  12.12$  20.6$  11.51$
  Q  0.6645  13.36$  20.08$  10.82$
  Q  -1.3290  12.83$  20.66$  11.04$
  Q  0.6645  9.63$  9.17$  2.21$
  Q  0.6645  9.89$  7.61$  2.14$
  Q  -1.3290  9.74$  8.4$  1.84$
  Q  0.6645  5.72$  8.08$  15.76$
  Q  0.6645  4.69$  7.36$  14.78$
  Q  -1.3290  5.22$  7.46$  15.45$
  Q  0.6645  7.08$  9.15$  4.41$
  Q  0.6645  6.02$  10.04$  3.71$
  Q  -1.3290  6.3$  9.4$  4.17$
  Q  0.6645  3.31$  8.19$  17.1$
  Q  0.6645  2.38$  9.27$  16.29$
  Q  -1.3290  2.91$  8.96$  16.91$
  Q  0.6645  3.89$  12.6$  4.13$
  Q  0.6645  2.95$  12.17$  3.07$
  Q  -1.3290  3.22$  12.69$  3.67$
  Q  0.6645  14.19$  18.26$  9.66$
  Q  0.6645  15.49$  18.96$  9.94$
  Q  -1.3290  14.67$  18.93$  9.87$
  Q  0.6645  0.48$  14.72$  14.5$
  Q  0.6645  1.6$  15.52$  13.82$
  Q  -1.3290  1.26$  15.07$  14.45$
  Q  0.6645  6.08$  4.57$  12.04$
  Q  0.6645  5.25$  3.59$  11.08$
  Q  -1.3290  5.94$  4.05$  11.36$
  Q  0.6645  10.66$  18.26$  13.33$
  Q  0.6645  11.14$  16.87$  13.73$
  Q  -1.3290  10.73$  17.6$  13.85$
  Q  0.6645  10.11$  10.56$  4.29$
  Q  0.6645  8.84$  11.23$  3.74$
  Q  -1.3290  9.62$  10.87$  3.69$
  Q  0.6645  16.76$  8.91$  1.13$
  Q  0.6645  17.5$  8.53$  2.55$
  Q  -1.3290  17.29$  8.95$  1.83$
  Q  0.6645  12.82$  16.11$  17.16$
  Q  0.6645  13.02$  14.73$  16.71$
  Q  -1.3290  12.63$  15.32$  17.13$
  Q  0.6645  1.53$  8.77$  11.89$
  Q  0.6645  2.94$  8.79$  12.51$
  Q  -1.3290  2.13$  8.61$  12.49$
  Q  0.6645  15.55$  4.7$  13.72$
  Q  0.6645  16.56$  5.59$  12.82$
  Q  -1.3290  16.05$  5.37$  13.48$
  Q  0.6645  4.25$  12.47$  8.25$
  Q  0.6645  2.98$  12.68$  7.47$
  Q  -1.3290  3.48$  12.74$  8.11$
  Q  0.6645  6.64$  12.39$  7.96$
  Q  0.6645  6.12$  12.3$  9.44$
  Q  -1.3290  6.24$  12.02$  8.64$
  Q  0.6645  3.8$  5.83$  5.66$
  Q  0.6645  5.23$  5.56$  5.23$
  Q  -1.3290  4.5$  5.34$  5.55$
  Q  0.6645  9.8$  2.82$  6.67$
  Q  0.6645  10.14$  1.97$  5.35$
  Q  -1.3290  9.88$  2.11$  6.14$
  Q  0.6645  0.16$  13.18$  12.75$
  Q  0.6645  0.99$  11.98$  12.19$
  Q  -1.3290  0.52$  12.39$  12.76$
  Q  0.6645  8.22$  15.67$  17.65$
  Q  0.6645  9.24$  14.75$  18.47$
  Q  -1.3290  8.55$  15.26$  18.35$
  Q  0.6645  12.21$  15.67$  8.02$
  Q  0.6645  11.15$  14.94$  8.91$
  Q  -1.3290  11.74$  14.99$  8.3$
  Q  0.6645  9.3$  1.22$  10.29$
  Q  0.6645  10.68$  1.29$  9.44$
  Q  -1.3290  10.1$  1.53$  10.05$
  Q  0.6645  13.02$  6.02$  18.41$
  Q  0.6645  14.48$  5.54$  18.31$
  Q  -1.3290  13.68$  5.46$  18.54$
  Q  0.6645  5.07$  5.48$  9.13$
  Q  0.6645  5.06$  5.49$  7.55$
  Q  -1.3290  5.03$  5.16$  8.33$
  Q  0.6645  -0.24$  9.13$  10.96$
  Q  0.6645  0.22$  8.67$  9.62$
  Q  -1.3290  0.32$  9.1$  10.33$
  Q  0.6645  3.29$  17.5$  13.43$
  Q  0.6645  4.36$  18.57$  14.08$
  Q  -1.3290  3.66$  17.98$  14.06$
  Q  0.6645  14$  8.1$  21.64$
  Q  0.6645  13.43$  6.69$  22.03$
  Q  -1.3290  13.41$  7.5$  21.75$
  Q  0.6645  20.12$  13.83$  10.75$
  Q  0.6645  18.84$  14.33$  9.91$
  Q  -1.3290  19.34$  13.78$  10.35$
  Q  0.6645  10.72$  2.47$  11.61$
  Q  0.6645  11.15$  2.44$  13.15$
  Q  -1.3290  11.06$  2.77$  12.35$
  Q  0.6645  5.23$  11.25$  5.54$
  Q  0.6645  6.07$  12.49$  5.12$
  Q  -1.3290  5.36$  12.04$  5.31$
  Q  0.6645  7.72$  9.6$  19.26$
  Q  0.6645  8.24$  8.1$  19.45$
  Q  -1.3290  8.26$  8.92$  19.19$
  Q  0.6645  4.82$  8.91$  5.58$
  Q  0.6645  5.61$  8.94$  6.95$
  Q  -1.3290  4.91$  8.95$  6.43$
  Q  0.6645  10.66$  18$  4.08$
  Q  0.6645  9.94$  18.63$  2.93$
  Q  -1.3290  10.5$  18.1$  3.29$
  Q  0.6645  14.87$  16.48$  5.08$
  Q  0.6645  14.41$  17.84$  4.54$
  Q  -1.3290  14.79$  17.31$  5.08$
  Q  0.6645  7.64$  11.86$  2.17$
  Q  0.6645  7.09$  12.85$  3.03$
  Q  -1.3290  7.22$  12.05$  2.82$
  Q  0.6645  20.53$  5.94$  9.48$
  Q  0.6645  21.05$  5.88$  10.92$
  Q  -1.3290  20.69$  5.58$  10.24$
  Q  0.6645  6.67$  2.87$  16.15$
  Q  0.6645  7.42$  4.22$  15.88$
  Q  -1.3290  7.12$  3.58$  16.36$
  Q  0.6645  14.8$  5.82$  7.11$
  Q  0.6645  14.32$  4.86$  8.23$
  Q  -1.3290  14.23$  5.49$  7.66$
  Q  0.6645  5.48$  6.04$  17.09$
  Q  0.6645  6.23$  4.79$  17.55$
  Q  -1.3290  5.7$  5.43$  17.64$
  Q  0.6645  10.26$  9.23$  21.62$
  Q  0.6645  9.87$  9.43$  20.26$
  Q  -1.3290  10.2$  9.68$  20.95$
  Q  0.6645  11.3$  12.98$  21.81$
  Q  0.6645  11.57$  11.74$  21.01$
  Q  -1.3290  11.51$  12.56$  21.1$
  Q  0.6645  16.44$  18.23$  7.78$
  Q  0.6645  15.77$  18.33$  6.35$
  Q  -1.3290  16.07$  18.6$  7.11$
  Q  0.6645  1.79$  9.75$  14.16$
  Q  0.6645  1.49$  11.33$  14.28$
  Q  -1.3290  1.53$  10.49$  14.54$
  Q  0.6645  12.12$  17.07$  2.56$
  Q  0.6645  12.47$  16.22$  1.2$
  Q  -1.3290  12.59$  16.58$  2$
  Q  0.6645  14.09$  16.07$  10.95$
  Q  0.6645  13.87$  16.06$  9.44$
  Q  -1.3290  14.29$  16.21$  10.15$
  Q  0.6645  9.52$  7.35$  13.12$
  Q  0.6645  9.48$  6.38$  11.87$
  Q  -1.3290  9.15$  6.86$  12.52$
  Q  0.6645  5.6$  11.17$  18.65$
  Q  0.6645  5.56$  10.21$  19.94$
  Q  -1.3290  5.93$  10.69$  19.35$
  Q  0.6645  12.04$  2.26$  3.85$
  Q  0.6645  11.05$  1.58$  3.05$
  Q  -1.3290  11.37$  1.82$  3.76$
  Q  0.6645  8.41$  20.86$  15$
  Q  0.6645  7.64$  20.77$  16.38$
  Q  -1.3290  7.84$  20.54$  15.57$
  Q  0.6645  3.18$  18.04$  8.3$
  Q  0.6645  3.9$  16.75$  8.14$
  Q  -1.3290  3.36$  17.24$  8.5$
  Q  0.6645  20.45$  11.98$  8.5$
  Q  0.6645  21.82$  12.43$  9.18$
  Q  -1.3290  21.23$  12.43$  8.57$
  Q  0.6645  19.3$  9.23$  11.5$
  Q  0.6645  19.23$  7.72$  11.75$
  Q  -1.3290  19.57$  8.47$  11.76$
  Q  0.6645  16.35$  19.6$  14.26$
  Q  0.6645  16.06$  19.9$  12.69$
  Q  -1.3290  15.89$  19.66$  13.52$
  Q  0.6645  20.47$  9.52$  5.31$
  Q  0.6645  19.05$  10.02$  4.84$
  Q  -1.3290  19.62$  9.55$  5.29$
  Q  0.6645  11.16$  13.34$  19.37$
  Q  0.6645  11.32$  14.43$  18.18$
  Q  -1.3290  10.9$  13.82$  18.68$
  Q  0.6645  5.61$  19.78$  14.98$
  Q  0.6645  4.31$  20.56$  14.76$
  Q  -1.3290  4.85$  20.01$  15.18$
  Q  0.6645  3.97$  16.71$  15.86$
  Q  0.6645  3.87$  15.24$  15.65$
  Q  -1.3290  4.12$  15.93$  16.07$
  Q  0.6645  6.39$  10.02$  8.52$
  Q  0.6645  7.4$  9.24$  7.8$
  Q  -1.3290  6.74$  9.32$  8.27$
  Q  0.6645  17.62$  17.31$  10.23$
  Q  0.6645  16.15$  16.86$  9.75$
  Q  -1.3290  16.96$  17.21$  9.67$
  Q  0.6645  7.58$  5.69$  13.51$
  Q  0.6645  6.24$  5.55$  14.07$
  Q  -1.3290  6.95$  5.26$  13.83$
  Q  0.6645  2.53$  15.7$  11.89$
  Q  0.6645  1.67$  16.98$  11.61$
  Q  -1.3290  2.18$  16.45$  12.05$
  Q  0.6645  4.86$  18.46$  18.39$
  Q  0.6645  5.33$  17.15$  19.2$
  Q  -1.3290  5.4$  17.84$  18.66$
  Q  0.6645  14.59$  1.08$  5.7$
  Q  0.6645  14.9$  1.29$  7.09$
  Q  -1.3290  14.69$  1.56$  6.36$
  Q  0.6645  18.65$  10.07$  17.39$
  Q  0.6645  18.34$  11.38$  16.51$
  Q  -1.3290  18.78$  10.68$  16.8$
  Q  0.6645  6.89$  15.18$  4.25$
  Q  0.6645  6.17$  15.03$  2.87$
  Q  -1.3290  6.81$  14.91$  3.45$
  Q  0.6645  6.18$  3.25$  2.19$
  Q  0.6645  6.98$  3.94$  3.36$
  Q  -1.3290  6.73$  3.31$  2.83$
  Q  0.6645  16.08$  6.87$  17.72$
  Q  0.6645  16.61$  5.36$  17.34$
  Q  -1.3290  16.4$  6.05$  17.83$
  Q  0.6645  7.46$  16.93$  5.93$
  Q  0.6645  6.23$  16.07$  6.43$
  Q  -1.3290  7.01$  16.22$  6.25$
  Q  0.6645  -0.37$  15.51$  11.55$
  Q  0.6645  0.52$  14.64$  10.53$
  Q  -1.3290  0.06$  14.81$  11.27$
  Q  0.6645  13.39$  17.78$  7.26$
  Q  0.6645  12.14$  18.06$  8.1$
  Q  -1.3290  12.84$  17.62$  7.86$
  Q  0.6645  12.59$  8.17$  12.97$
  Q  0.6645  12.86$  7.19$  11.91$
  Q  -1.3290  13.06$  7.63$  12.56$
  Q  0.6645  7.87$  20.48$  7.49$
  Q  0.6645  8.99$  21.62$  7.05$
  Q  -1.3290  8.59$  20.8$  7.1$
  Q  0.6645  14.38$  11.02$  2.81$
  Q  0.6645  14.03$  10.58$  4.13$
  Q  -1.3290  14.36$  10.47$  3.4$
  Q  0.6645  2.56$  13.42$  11.11$
  Q  0.6645  3$  13.49$  12.62$
  Q  -1.3290  3.08$  13.6$  11.77$
  Q  0.6645  13.01$  12.56$  1.89$
  Q  0.6645  14.57$  13.01$  1.86$
  Q  -1.3290  13.87$  12.51$  1.69$
  Q  0.6645  7.09$  2.74$  12.63$
  Q  0.6645  6.91$  1.3$  12.32$
  Q  -1.3290  7.2$  1.93$  12.77$
  Q  0.6645  7.52$  14.19$  6.88$
  Q  0.6645  8.56$  13.15$  6.73$
  Q  -1.3290  7.77$  13.43$  6.7$
  Q  0.6645  10.78$  4.52$  11.55$
  Q  0.6645  9.73$  4.91$  10.54$
  Q  -1.3290  10.43$  5.04$  10.98$
  Q  0.6645  11.59$  2.55$  17.48$
  Q  0.6645  11.31$  4.08$  17.21$
  Q  -1.3290  11.55$  3.29$  17.01$
  Q  0.6645  6.53$  12.49$  20.13$
  Q  0.6645  7.24$  13.7$  19.5$
  Q  -1.3290  6.88$  13.27$  20.14$
  Q  0.6645  2.15$  13.11$  19.27$
  Q  0.6645  3.39$  12.73$  20.17$
  Q  -1.3290  2.98$  12.98$  19.45$
  Q  0.6645  11.83$  8.66$  4.18$
  Q  0.6645  11.44$  7.86$  5.47$
  Q  -1.3290  11.45$  8.54$  4.95$
  Q  0.6645  10.07$  5.28$  1.45$
  Q  0.6645  10.86$  5.57$  2.71$
  Q  -1.3290  10.14$  5.49$  2.28$
  Q  0.6645  7.88$  8.27$  11.75$
  Q  0.6645  7.09$  8.93$  10.39$
  Q  -1.3290  7.21$  8.6$  11.22$
  Q  0.6645  10.27$  20.62$  12.92$
  Q  0.6645  9.8$  20.05$  11.71$
  Q  -1.3290  10.32$  20.11$  12.32$
  Q  0.6645  14.17$  20.83$  14.17$
  Q  0.6645  13.02$  20.2$  15.04$
  Q  -1.3290  13.51$  20.85$  14.69$
  Q  0.6645  3.73$  9.43$  8.22$
  Q  0.6645  2.57$  8.74$  9.07$
  Q  -1.3290  3.28$  9.2$  8.93$
  Q  0.6645  11.26$  10.26$  16.86$
  Q  0.6645  12.47$  9.45$  17$
  Q  -1.3290  11.68$  9.61$  17.15$
  Q  0.6645  5.28$  15.93$  -0.22$
  Q  0.6645  6.26$  14.88$  -0.52$
  Q  -1.3290  5.86$  15.41$  -0.01$
  Q  0.6645  9.97$  15.84$  3.11$
  Q  0.6645  8.84$  14.85$  3.16$
  Q  -1.3290  9.62$  15.11$  3.26$
  Q  0.6645  17.09$  16.01$  5.74$
  Q  0.6645  17.64$  16.61$  4.53$
  Q  -1.3290  17.63$  16.5$  5.34$
  Q  0.6645  20.44$  7.08$  15.62$
  Q  0.6645  18.98$  7.54$  15.21$
  Q  -1.3290  19.65$  7.01$  15.23$
  Q  0.6645  9.57$  8.29$  4.64$
  Q  0.6645  8.28$  7.53$  4.34$
  Q  -1.3290  8.73$  8.18$  4.61$
  Q  0.6645  18.84$  12.34$  13.31$
  Q  0.6645  18.36$  13.29$  12.2$
  Q  -1.3290  18.4$  13$  12.99$
  Q  0.6645  7.61$  4.75$  9.94$
  Q  0.6645  8.27$  3.57$  9.15$
  Q  -1.3290  8.2$  4.39$  9.43$
  Q  0.6645  4.11$  14.58$  18.91$
  Q  0.6645  4.62$  15.74$  18.01$
  Q  -1.3290  4.64$  15.16$  18.65$
  Q  0.6645  9.03$  16.46$  20.08$
  Q  0.6645  9.03$  17.77$  21.02$
  Q  -1.3290  9.37$  17.11$  20.56$
  Q  0.6645  13.45$  18.3$  16.57$
  Q  0.6645  14.48$  17.35$  16$
  Q  -1.3290  14.01$  17.69$  16.62$
  Q  0.6645  11.42$  18.49$  15.29$
  Q  0.6645  11.14$  19.52$  16.44$
  Q  -1.3290  11.65$  19.05$  15.89$
  Q  0.6645  3.91$  10.58$  17.1$
  Q  0.6645  3.68$  11.87$  17.76$
  Q  -1.3290  4.13$  11.38$  17.32$
  Q  0.6645  2.29$  12.05$  9.54$
  Q  0.6645  1.32$  11.02$  10.2$
  Q  -1.3290  1.62$  11.79$  10$
  Q  0.6645  3.31$  7.75$  6.71$
  Q  0.6645  2.05$  6.79$  7.02$
  Q  -1.3290  2.59$  7.25$  6.53$
  Q  0.6645  16.96$  3.68$  15.85$
  Q  0.6645  17.1$  5.06$  15.21$
  Q  -1.3290  17.29$  4.45$  15.76$
  Q  0.6645  8.85$  5.23$  6.05$
  Q  0.6645  8.86$  4.74$  7.51$
  Q  -1.3290  9.16$  4.84$  6.73$
  Q  0.6645  20.65$  15.45$  14.09$
  Q  0.6645  19.63$  14.22$  13.77$
  Q  -1.3290  20.34$  14.62$  14.14$
  Q  0.6645  17.72$  9.26$  14$
  Q  0.6645  18.17$  9.64$  15.46$
  Q  -1.3290  17.86$  9.15$  14.85$
  Q  0.6645  3.83$  12.67$  15.79$
  Q  0.6645  2.87$  13.59$  15.08$
  Q  -1.3290  3.55$  13.14$  15.18$
  Q  0.6645  5.83$  19.29$  6.91$
  Q  0.6645  5.79$  19.52$  8.52$
  Q  -1.3290  6.08$  19.59$  7.7$
  Q  0.6645  17.42$  10.7$  2.94$
  Q  0.6645  16.82$  10.74$  4.31$
  Q  -1.3290  17.35$  10.97$  3.72$
  Q  0.6645  11.08$  5.37$  6.28$
  Q  0.6645  12.51$  5.71$  6.69$
  Q  -1.3290  11.83$  5.68$  6.15$
  Q  0.6645  18.61$  13.16$  5.97$
  Q  0.6645  18.21$  14.04$  7.21$
  Q  -1.3290  18.21$  13.34$  6.71$
  Q  0.6645  18.82$  10.51$  9.46$
  Q  0.6645  19.24$  11.64$  10.44$
  Q  -1.3290  19$  10.85$  10.23$
  Q  0.6645  18.59$  5.81$  11.92$
  Q  0.6645  18.2$  6.02$  10.57$
  Q  -1.3290  18.12$  6.16$  11.36$
  Q  0.6645  14.69$  8$  16.09$
  Q  0.6645  16.25$  8.15$  15.83$
  Q  -1.3290  15.49$  8.18$  16.28$
  Q  0.6645  17.97$  16.15$  8.56$
  Q  0.6645  18.92$  15.99$  7.32$
  Q  -1.3290  18.56$  15.77$  8.07$
  Q  0.6645  15.78$  5.61$  5.24$
  Q  0.6645  16.61$  6.8$  5.83$
  Q  -1.3290  15.91$  6.4$  5.53$
  Q  0.6645  4.46$  6.3$  12.37$
  Q  0.6645  3.84$  5.43$  13.59$
  Q  -1.3290  4.15$  6.14$  13.17$
*
