! NoMOPrint PrintBasis #MINIPRINT SMALLPRINT LARGEPRINT
! ALLPOP XYZFILE
#! BP86 3-21G   TightSCF
! ENGRAD
! B3LYP NormalPNO PModel #DecontractAux
#! VerySlowConv 
 %maxcore 5000
 %scf  maxiter   500  end 

%pal
    nprocs 32
end

%basis
    NewGTO O    # New basis for oxygen
        "aug-cc-pVTZ"
    end
    NewGTO C    # New basis for carbon
        "aug-cc-pVTZ"
    end
    NewGTO H    # New basis for hydrogen
        "cc-pVTZ"
    end
end

* xyz 0   1
  C  9.58  10.55  11.49  #1
  H  10.32  9.98  12.09  #2
  H  8.67  9.95  11.26  #3
  C  10.22  10.85  10.15  #4
  H  10.42  9.96  9.69  #5
  H  9.46  11.34  9.53  #6
  C  11.41  11.79  10.19  #7
  H  11.12  12.56  10.88  #8
  H  11.5  12.18  9.13  #9
  C  12.71  11.23  10.8  #10
  H  12.45  10.68  11.73  #11
  H  13.45  11.97  11.07  #12
  O  13.34  10.27  9.85  #13
  H  12.72  9.57  9.72  #14
  O  9.2  11.8  12.14  #15
  H  8.76  11.49  12.99  #16
  O  13.73  10.43  6.53  #17
  H  13.97  10.45  7.49  #18
  H  13.15  9.68  6.36  #19
  O  8.9  8.26  13.95  #20
  H  8.04  8.72  13.71  #21
  H  9.38  8.8  14.62  #22
  O  12.4  7.41  9.04  #23
  H  11.53  7.09  9.04  #24
  H  12.49  7.67  8.11  #25
  O  15.8  10.63  8.88  #26
  H  15.08  10.43  9.42  #27
  H  15.92  9.78  8.42  #28
  O  9.22  12.72  7.44  #29
  H  9.12  13.5  8.03  #30
  H  10.1  12.83  7  #31
  O  7.39  14.5  9.22  #32
  H  6.47  14.16  9.12  #33
  H  7.27  15.42  8.85  #34
  O  9.29  14.57  11.32  #35
  H  8.74  14.43  10.54  #36
  H  9.38  13.71  11.67  #37
  O  13.95  14.76  10.69  #38
  H  13.11  15.03  11.02  #39
  H  14.48  15.54  10.97  #40
  O  11.47  11.88  6.05  #41
  H  12.2  11.36  6.44  #42
  H  11.89  12.78  6.16  #43
  O  6.71  12.48  5.99  #44
  H  6.64  13.37  5.66  #45
  H  7.63  12.43  6.26  #46
  O  10.35  9.9  15.57  #47
  H  11.15  9.36  15.51  #48
  H  10.1  9.84  16.52  #49
  O  15.81  8.06  7.25  #50
  H  15.22  7.48  7.76  #51
  H  15.16  8.35  6.61  #52
  O  9.88  5.91  10.06  #53
  H  10.01  6.06  11.01  #54
  H  8.96  6.09  10.09  #55
  O  12.62  7.88  6.43  #56
  H  11.99  7.97  5.72  #57
  H  12.85  6.96  6.24  #58
  O  6.26  7.86  12.7  #59
  H  6.73  7.5  11.94  #60
  H  6.4  7.15  13.35  #61
  O  7.71  11.92  14.52  #62
  H  7.6  11.3  15.27  #63
  H  8.45  12.48  14.81  #64
  O  14.79  5.89  8.81  #65
  H  13.98  6.33  9.08  #66
  H  14.97  5.24  9.49  #67
  O  10.39  6.2  13.23  #68
  H  11.25  6.49  12.81  #69
  H  9.97  7.06  13.46  #70
  O  12.6  7.54  11.97  #71
  H  13.53  7.32  12.06  #72
  H  12.55  7.59  11.02  #73
  O  5.83  12.77  12.4  #74
  H  6.11  12.3  11.53  #75
  H  6.48  12.38  13  #76
  O  9.64  9.8  7.16  #77
  H  9.17  9.49  6.39  #78
  H  9.85  10.77  7.08  #79
  O  7.22  9.22  8.57  #80
  H  8.14  9.25  8.2  #81
  H  6.96  10.01  9.12  #82
  O  16.51  13.27  11.84  #83
  H  15.59  13.44  11.58  #84
  H  16.83  14.18  11.83  #85
  O  18.29  12.23  9.25  #86
  H  17.4  11.86  9.28  #87
  H  18.3  12.88  9.96  #88
  Q  0.6645  4.65$  18.15$  10.55$
  Q  0.6645  4.77$  18.3$  12.02$
  Q  -1.3290  4.41$  18$  11.31$
  Q  0.6645  18.01$  18.28$  8.15$
  Q  0.6645  18.37$  19.42$  9.03$
  Q  -1.3290  17.88$  19$  8.53$
  Q  0.6645  14.24$  10.08$  14.2$
  Q  0.6645  15.02$  8.81$  13.73$
  Q  -1.3290  14.9$  9.61$  14.02$
  Q  0.6645  20.16$  10.56$  13.09$
  Q  0.6645  18.74$  9.99$  12.92$
  Q  -1.3290  19.58$  9.96$  12.9$
  Q  0.6645  16.97$  4.31$  10.77$
  Q  0.6645  15.86$  3.4$  10.47$
  Q  -1.3290  16.2$  4.05$  10.85$
  Q  0.6645  18.72$  7.22$  4.29$
  Q  0.6645  18.07$  8.35$  5.07$
  Q  -1.3290  18.13$  7.79$  4.44$
  Q  0.6645  12.91$  11.32$  16.49$
  Q  0.6645  13.46$  10.24$  17.32$
  Q  -1.3290  13.31$  11.02$  17.16$
  Q  0.6645  6.36$  11.87$  18.32$
  Q  0.6645  6.99$  10.63$  17.63$
  Q  -1.3290  6.94$  11.46$  17.83$
  Q  0.6645  15.12$  20.01$  13.23$
  Q  0.6645  16.49$  20.27$  13.93$
  Q  -1.3290  15.98$  20.12$  13.26$
  Q  0.6645  4.82$  6.16$  18.17$
  Q  0.6645  5.36$  7.59$  18.15$
  Q  -1.3290  5.42$  6.76$  18.07$
  Q  0.6645  12.57$  15.12$  14.16$
  Q  0.6645  11.65$  15.06$  12.98$
  Q  -1.3290  11.87$  14.87$  13.73$
  Q  0.6645  10.98$  2.31$  9.23$
  Q  0.6645  10.27$  3.67$  9.56$
  Q  -1.3290  10.63$  2.91$  9.73$
  Q  0.6645  20.41$  6.39$  13.77$
  Q  0.6645  21.75$  5.94$  14.53$
  Q  -1.3290  21.24$  6.15$  13.82$
  Q  0.6645  4.86$  16.35$  7.85$
  Q  0.6645  4.24$  15.47$  8.79$
  Q  -1.3290  4.22$  16.03$  8.19$
  Q  0.6645  2.59$  14.3$  11.3$
  Q  0.6645  1.15$  14.73$  11.04$
  Q  -1.3290  1.75$  14.28$  11.37$
  Q  0.6645  19.73$  4.56$  6.94$
  Q  0.6645  18.37$  4.33$  6.03$
  Q  -1.3290  18.99$  4.8$  6.55$
  Q  0.6645  10.86$  4.37$  18.57$
  Q  0.6645  10.61$  4.3$  17.09$
  Q  -1.3290  10.75$  4.7$  17.8$
  Q  0.6645  14.59$  11.02$  2.72$
  Q  0.6645  15.33$  9.59$  2.29$
  Q  -1.3290  14.68$  10.12$  2.65$
  Q  0.6645  17.98$  7.31$  17.24$
  Q  0.6645  19.07$  6.05$  17.61$
  Q  -1.3290  18.71$  6.9$  17.57$
  Q  0.6645  6.97$  13.33$  21.18$
  Q  0.6645  5.44$  13.74$  21.64$
  Q  -1.3290  6.1$  13.37$  21.16$
  Q  0.6645  12.35$  5.67$  4.28$
  Q  0.6645  13.71$  6.41$  4.49$
  Q  -1.3290  13.13$  5.79$  4.55$
  Q  0.6645  3.88$  15.38$  15.61$
  Q  0.6645  4.48$  16.27$  16.74$
  Q  -1.3290  4.31$  15.54$  16.35$
  Q  0.6645  16.88$  11.79$  12.67$
  Q  0.6645  16.46$  10.62$  13.56$
  Q  -1.3290  17.01$  11.19$  13.26$
  Q  0.6645  3.31$  12.15$  16.84$
  Q  0.6645  3.16$  11.76$  15.3$
  Q  -1.3290  3.29$  11.61$  16.2$
  Q  0.6645  1.06$  9.52$  11.36$
  Q  0.6645  1.31$  10.77$  10.76$
  Q  -1.3290  1.31$  10.25$  11.4$
  Q  0.6645  2.9$  13.95$  13.76$
  Q  0.6645  2.11$  15.31$  13.6$
  Q  -1.3290  2.64$  14.78$  13.97$
  Q  0.6645  10.48$  14.27$  17.14$
  Q  0.6645  11.26$  15.46$  17.87$
  Q  -1.3290  10.97$  14.67$  17.75$
  Q  0.6645  5.69$  15.78$  19.99$
  Q  0.6645  5.99$  16.69$  21.11$
  Q  -1.3290  5.66$  16.51$  20.36$
  Q  0.6645  8.84$  4.6$  6.98$
  Q  0.6645  7.8$  4.96$  7.91$
  Q  -1.3290  8.31$  5.1$  7.27$
  Q  0.6645  17.43$  15.41$  4.65$
  Q  0.6645  16.23$  16.49$  4.61$
  Q  -1.3290  16.98$  16.14$  4.89$
  Q  0.6645  19.25$  12.47$  7.29$
  Q  0.6645  20.13$  11.54$  6.3$
  Q  -1.3290  19.55$  12.18$  6.53$
  Q  0.6645  8.91$  1.65$  10.6$
  Q  0.6645  8.56$  0.31$  11.41$
  Q  -1.3290  8.42$  1.06$  10.97$
  Q  0.6645  10.55$  19.12$  15.15$
  Q  0.6645  11.99$  19.51$  15.75$
  Q  -1.3290  11.15$  19.63$  15.55$
  Q  0.6645  15.17$  13.74$  18.89$
  Q  0.6645  15.62$  13.71$  20.27$
  Q  -1.3290  15.04$  13.77$  19.71$
  Q  0.6645  8.39$  15.86$  12.25$
  Q  0.6645  7.56$  15.71$  13.66$
  Q  -1.3290  7.97$  16.11$  12.97$
  Q  0.6645  15.79$  7.47$  12.21$
  Q  0.6645  15.78$  6.31$  13.19$
  Q  -1.3290  15.51$  7.05$  12.9$
  Q  0.6645  19.36$  14.99$  10.48$
  Q  0.6645  20.34$  14.4$  11.49$
  Q  -1.3290  19.99$  14.48$  10.71$
  Q  0.6645  8.67$  6.9$  19.35$
  Q  0.6645  9.65$  6.59$  18.29$
  Q  -1.3290  9.27$  7.11$  18.83$
  Q  0.6645  5.38$  10.48$  10.48$
  Q  0.6645  5.56$  11.6$  9.41$
  Q  -1.3290  5.79$  11.09$  10.1$
  Q  0.6645  4.05$  12.03$  13.22$
  Q  0.6645  2.47$  11.89$  13.04$
  Q  -1.3290  3.22$  12.02$  13.43$
  Q  0.6645  8.55$  19.11$  11.78$
  Q  0.6645  7.61$  17.87$  12.04$
  Q  -1.3290  7.84$  18.66$  11.78$
  Q  0.6645  6.09$  20.39$  9.21$
  Q  0.6645  6.42$  19.63$  10.48$
  Q  -1.3290  5.95$  19.83$  9.79$
  Q  0.6645  15.4$  8.83$  17.19$
  Q  0.6645  16.02$  9.1$  15.82$
  Q  -1.3290  16.05$  8.93$  16.64$
  Q  0.6645  18.11$  13.12$  3.55$
  Q  0.6645  18.33$  13.13$  5.15$
  Q  -1.3290  18.05$  13.42$  4.4$
  Q  0.6645  12.26$  15.03$  6.92$
  Q  0.6645  12.15$  14.89$  5.36$
  Q  -1.3290  11.86$  14.95$  6.17$
  Q  0.6645  16.67$  16.86$  14.84$
  Q  0.6645  16.37$  16.47$  13.36$
  Q  -1.3290  16.68$  16.36$  14.14$
  Q  0.6645  1.61$  12.93$  9.9$
  Q  0.6645  1.58$  11.86$  8.92$
  Q  -1.3290  1.92$  12.28$  9.54$
  Q  0.6645  8.33$  14.11$  18.73$
  Q  0.6645  7.26$  14.48$  17.76$
  Q  -1.3290  7.79$  14.65$  18.35$
  Q  0.6645  17.03$  4.59$  14.13$
  Q  0.6645  15.7$  3.96$  13.67$
  Q  -1.3290  16.19$  4.51$  14.07$
  Q  0.6645  16.26$  4.66$  16.22$
  Q  0.6645  16.32$  3.7$  17.55$
  Q  -1.3290  16.27$  4.45$  17.07$
  Q  0.6645  3.17$  9.7$  5.28$
  Q  0.6645  1.81$  8.99$  4.8$
  Q  -1.3290  2.32$  9.64$  5$
  Q  0.6645  6.71$  14.06$  14.96$
  Q  0.6645  6.03$  15.2$  15.68$
  Q  -1.3290  6.68$  14.82$  15.32$
  Q  0.6645  15.01$  12.53$  5.64$
  Q  0.6645  15.94$  13.55$  4.89$
  Q  -1.3290  15.28$  13.3$  5.36$
  Q  0.6645  13.66$  9.05$  1.3$
  Q  0.6645  13.03$  10.07$  0.38$
  Q  -1.3290  13.3$  9.3$  0.59$
  Q  0.6645  12.19$  17.23$  2.15$
  Q  0.6645  12.59$  15.84$  2.64$
  Q  -1.3290  12.09$  16.41$  2.28$
  Q  0.6645  4.6$  18.95$  14.3$
  Q  0.6645  5.74$  19.7$  13.69$
  Q  -1.3290  5.07$  19.23$  13.67$
  Q  0.6645  8.4$  14.94$  2.6$
  Q  0.6645  7.93$  13.43$  2.76$
  Q  -1.3290  7.83$  14.28$  2.66$
  Q  0.6645  15.56$  15.44$  2.03$
  Q  0.6645  16.75$  15.85$  1.17$
  Q  -1.3290  16.12$  15.35$  1.42$
  Q  0.6645  2.36$  7.05$  14.28$
  Q  0.6645  1.35$  8.05$  15.06$
  Q  -1.3290  2.07$  7.59$  14.9$
  Q  0.6645  11.18$  10.33$  19.73$
  Q  0.6645  12.56$  10.74$  19.1$
  Q  -1.3290  12.01$  10.55$  19.74$
  Q  0.6645  14.3$  17.86$  8.88$
  Q  0.6645  13.84$  16.67$  8.14$
  Q  -1.3290  13.85$  17.47$  8.34$
  Q  0.6645  19.11$  4.56$  13.7$
  Q  0.6645  18.34$  5.42$  12.58$
  Q  -1.3290  18.69$  5.21$  13.35$
  Q  0.6645  12.06$  2.85$  11.08$
  Q  0.6645  13.62$  2.72$  11.33$
  Q  -1.3290  12.78$  2.75$  11.54$
  Q  0.6645  8.24$  17.05$  4.25$
  Q  0.6645  7.89$  18.3$  4.98$
  Q  -1.3290  8.03$  17.45$  4.94$
  Q  0.6645  14.38$  12.9$  16.68$
  Q  0.6645  15.85$  13.21$  16.8$
  Q  -1.3290  15.05$  13.37$  16.58$
  Q  0.6645  6.69$  3.81$  17.76$
  Q  0.6645  6.53$  5.36$  17.6$
  Q  -1.3290  6.73$  4.55$  17.36$
  Q  0.6645  2.71$  4.77$  17.11$
  Q  0.6645  2.95$  4.68$  15.58$
  Q  -1.3290  2.49$  4.69$  16.3$
  Q  0.6645  10.08$  13.22$  18.73$
  Q  0.6645  9$  12.24$  18.25$
  Q  -1.3290  9.44$  12.72$  18.8$
  Q  0.6645  14.18$  2.11$  7.08$
  Q  0.6645  14.59$  0.62$  7.19$
  Q  -1.3290  14.23$  1.34$  7.46$
  Q  0.6645  7.66$  10.88$  21.73$
  Q  0.6645  7.72$  9.6$  22.5$
  Q  -1.3290  7.4$  10.12$  21.96$
  Q  0.6645  0.22$  10.74$  14.8$
  Q  0.6645  1.44$  10.88$  15.68$
  Q  -1.3290  0.72$  10.49$  15.42$
  Q  0.6645  12.52$  5.49$  17.47$
  Q  0.6645  14.05$  4.97$  17.42$
  Q  -1.3290  13.37$  5.52$  17.36$
  Q  0.6645  13.16$  21.05$  12.61$
  Q  0.6645  12.82$  21.28$  14.05$
  Q  -1.3290  13.21$  20.89$  13.44$
  Q  0.6645  10.93$  7.23$  20.2$
  Q  0.6645  11.51$  8.38$  21.06$
  Q  -1.3290  11.09$  7.66$  20.92$
  Q  0.6645  16.42$  3.7$  5.85$
  Q  0.6645  16.89$  2.6$  4.96$
  Q  -1.3290  16.91$  3.38$  5.27$
  Q  0.6645  6.54$  14.8$  3.93$
  Q  0.6645  6.45$  15.81$  5.12$
  Q  -1.3290  6.25$  15.1$  4.68$
  Q  0.6645  2.77$  8.75$  8.47$
  Q  0.6645  3.38$  8.73$  9.78$
  Q  -1.3290  3.12$  8.37$  9.1$
  Q  0.6645  5.08$  4.96$  14.12$
  Q  0.6645  3.81$  5.52$  13.48$
  Q  -1.3290  4.23$  4.99$  14.01$
  Q  0.6645  2.33$  10.5$  7.42$
  Q  0.6645  0.88$  9.87$  7.23$
  Q  -1.3290  1.6$  10.15$  7.65$
  Q  0.6645  2.08$  17.58$  15.86$
  Q  0.6645  1.95$  16.08$  15.65$
  Q  -1.3290  1.66$  16.85$  15.87$
  Q  0.6645  13.84$  2.12$  14.65$
  Q  0.6645  14.29$  0.95$  13.68$
  Q  -1.3290  14.39$  1.62$  14.22$
  Q  0.6645  7.72$  20.13$  13.29$
  Q  0.6645  7.84$  19.58$  14.68$
  Q  -1.3290  7.65$  20.15$  14.12$
  Q  0.6645  12.89$  12.23$  1.33$
  Q  0.6645  12.57$  11.73$  2.79$
  Q  -1.3290  12.83$  12.28$  2.2$
  Q  0.6645  14.41$  14.93$  15.52$
  Q  0.6645  14.74$  15.78$  14.35$
  Q  -1.3290  14.26$  15.47$  14.94$
  Q  0.6645  5.64$  5.81$  8.06$
  Q  0.6645  4.99$  4.74$  8.8$
  Q  -1.3290  5.62$  5.23$  8.62$
  Q  0.6645  12.3$  18.7$  5.24$
  Q  0.6645  13.28$  18.18$  6.39$
  Q  -1.3290  13.06$  18.43$  5.59$
  Q  0.6645  6.16$  9.08$  20.69$
  Q  0.6645  5.19$  9.59$  19.53$
  Q  -1.3290  5.53$  9.04$  20.09$
  Q  0.6645  12.6$  3.41$  13.55$
  Q  0.6645  12.98$  4.17$  14.81$
  Q  -1.3290  12.54$  3.62$  14.36$
  Q  0.6645  21.96$  11.95$  8.42$
  Q  0.6645  21.1$  12.67$  9.56$
  Q  -1.3290  21.58$  12.05$  9.17$
  Q  0.6645  3.93$  12.94$  8.79$
  Q  0.6645  4.77$  12.83$  7.48$
  Q  -1.3290  4.64$  12.91$  8.3$
  Q  0.6645  3.46$  8.43$  16.39$
  Q  0.6645  4$  9.81$  16.37$
  Q  -1.3290  4.02$  8.98$  16.56$
  Q  0.6645  5.87$  10.91$  6.02$
  Q  0.6645  5.49$  9.35$  6.37$
  Q  -1.3290  5.34$  10.16$  6.06$
  Q  0.6645  7.78$  8.35$  16.85$
  Q  0.6645  6.44$  8.73$  16.43$
  Q  -1.3290  7.18$  8.89$  16.72$
  Q  0.6645  7.22$  7.66$  9.61$
  Q  0.6645  6.74$  6.21$  9.93$
  Q  -1.3290  7.21$  6.89$  10.02$
  Q  0.6645  6.76$  6.29$  19.58$
  Q  0.6645  7.5$  4.95$  19.79$
  Q  -1.3290  7.21$  5.72$  20.02$
  Q  0.6645  11.87$  17.42$  13.18$
  Q  0.6645  12.46$  18.88$  13.4$
  Q  -1.3290  12.47$  18.02$  13.38$
  Q  0.6645  2.85$  14.21$  18.78$
  Q  0.6645  3.92$  14.03$  17.72$
  Q  -1.3290  3.4$  13.76$  18.3$
  Q  0.6645  0.62$  15.75$  9.25$
  Q  0.6645  -0.71$  15.39$  10.01$
  Q  -1.3290  -0.02$  15.84$  9.82$
  Q  0.6645  15.51$  17.54$  11.44$
  Q  0.6645  14.25$  17.51$  12.39$
  Q  -1.3290  14.95$  17.22$  12.01$
  Q  0.6645  8.38$  17.21$  1.67$
  Q  0.6645  9.67$  17.01$  2.43$
  Q  -1.3290  8.85$  16.95$  2.31$
  Q  0.6645  12.38$  12.81$  14.5$
  Q  0.6645  11.28$  11.8$  14.89$
  Q  -1.3290  12.08$  12.06$  14.81$
  Q  0.6645  12.19$  18$  8.81$
  Q  0.6645  10.77$  17.55$  8.71$
  Q  -1.3290  11.37$  18.08$  8.95$
  Q  0.6645  8.57$  1.64$  16.54$
  Q  0.6645  10.03$  1.84$  16.91$
  Q  -1.3290  9.25$  2.12$  16.72$
  Q  0.6645  14.08$  14.42$  4.36$
  Q  0.6645  13.24$  13.84$  3.21$
  Q  -1.3290  13.5$  14.47$  3.75$
  Q  0.6645  10.12$  18.4$  4.99$
  Q  0.6645  10.51$  19.63$  4.04$
  Q  -1.3290  10.51$  19.15$  4.76$
  Q  0.6645  8.48$  17.59$  16.36$
  Q  0.6645  8.2$  17.4$  14.89$
  Q  -1.3290  8.47$  17.8$  15.56$
  Q  0.6645  8.93$  10.22$  18.72$
  Q  0.6645  9.53$  8.92$  18.53$
  Q  -1.3290  9.55$  9.75$  18.48$
  Q  0.6645  4.92$  14.21$  11.22$
  Q  0.6645  4.38$  15.6$  11.19$
  Q  -1.3290  4.45$  14.81$  10.9$
  Q  0.6645  11.14$  15.28$  0.79$
  Q  0.6645  11.43$  13.89$  0.5$
  Q  -1.3290  11.06$  14.59$  0.35$
  Q  0.6645  6.04$  18.64$  17.73$
  Q  0.6645  5.64$  17.32$  18.41$
  Q  -1.3290  5.65$  17.9$  17.79$
  Q  0.6645  9.21$  13.57$  21.97$
  Q  0.6645  9.37$  12.65$  20.9$
  Q  -1.3290  9.09$  12.85$  21.64$
  Q  0.6645  4.62$  8.88$  12.13$
  Q  0.6645  3.21$  9.53$  12.04$
  Q  -1.3290  3.94$  9.21$  11.74$
  Q  0.6645  6.5$  17.97$  8.76$
  Q  0.6645  6.66$  17.44$  7.32$
  Q  -1.3290  6.77$  17.43$  8.14$
  Q  0.6645  13.61$  17.89$  15.83$
  Q  0.6645  12.93$  18.03$  17.24$
  Q  -1.3290  13.41$  18.29$  16.56$
  Q  0.6645  10.78$  21.24$  8.51$
  Q  0.6645  11.09$  19.82$  9.06$
  Q  -1.3290  11.05$  20.68$  9.08$
  Q  0.6645  22.21$  11.32$  12.59$
  Q  0.6645  21.39$  12.45$  13.4$
  Q  -1.3290  21.73$  11.65$  13.26$
  Q  0.6645  6.14$  2.05$  5.9$
  Q  0.6645  5.62$  3.56$  5.71$
  Q  -1.3290  5.68$  2.71$  5.58$
  Q  0.6645  14.03$  8.67$  18.7$
  Q  0.6645  13.57$  7.48$  17.83$
  Q  -1.3290  13.78$  8.29$  17.98$
  Q  0.6645  5.41$  7.87$  2.99$
  Q  0.6645  5.71$  8.94$  4.28$
  Q  -1.3290  5.85$  8.29$  3.68$
  Q  0.6645  6.38$  2.93$  13.3$
  Q  0.6645  6.96$  1.84$  12.41$
  Q  -1.3290  6.44$  2.15$  13.01$
  Q  0.6645  19.91$  9.53$  15.9$
  Q  0.6645  21.35$  9.74$  16.27$
  Q  -1.3290  20.55$  9.63$  16.43$
  Q  0.6645  14.17$  14.7$  8.6$
  Q  0.6645  14.57$  14.46$  7.13$
  Q  -1.3290  14.08$  14.72$  7.78$
  Q  0.6645  14.06$  4.46$  5.84$
  Q  0.6645  14.65$  4.57$  7.2$
  Q  -1.3290  14.42$  4.16$  6.53$
  Q  0.6645  5.28$  11.89$  20.24$
  Q  0.6645  4.22$  12$  19.14$
  Q  -1.3290  4.87$  11.67$  19.54$
  Q  0.6645  10.68$  0.79$  7.35$
  Q  0.6645  12.11$  1.16$  7.65$
  Q  -1.3290  11.3$  1.29$  7.61$
  Q  0.6645  18.69$  19.24$  11.34$
  Q  0.6645  17.3$  18.88$  11.91$
  Q  -1.3290  18.09$  18.7$  11.6$
  Q  0.6645  18.78$  16.42$  7.67$
  Q  0.6645  17.46$  16.05$  6.93$
  Q  -1.3290  17.96$  16.16$  7.6$
  Q  0.6645  10.36$  14.21$  14.85$
  Q  0.6645  8.89$  14.68$  15.44$
  Q  -1.3290  9.57$  14.16$  15.29$
  Q  0.6645  8.5$  16.56$  18.42$
  Q  0.6645  8.16$  17.99$  18.9$
  Q  -1.3290  8.5$  17.41$  18.39$
  Q  0.6645  9.35$  2.6$  2.77$
  Q  0.6645  9.87$  3.84$  3.51$
  Q  -1.3290  9.74$  3.03$  3.41$
  Q  0.6645  9.24$  3.09$  14.9$
  Q  0.6645  10.05$  4.02$  13.94$
  Q  -1.3290  9.49$  3.42$  14.15$
  Q  0.6645  10.84$  17.58$  18.54$
  Q  0.6645  12.07$  16.88$  19.26$
  Q  -1.3290  11.67$  17.49$  18.76$
  Q  0.6645  17.69$  14.76$  14.65$
  Q  0.6645  17.66$  13.32$  14.03$
  Q  -1.3290  17.93$  13.95$  14.51$
  Q  0.6645  16.92$  7.25$  10.02$
  Q  0.6645  17.2$  8.72$  10.51$
  Q  -1.3290  16.82$  7.96$  10.51$
  Q  0.6645  2.48$  4.77$  9.53$
  Q  0.6645  2.93$  6.13$  9.05$
  Q  -1.3290  2.69$  5.35$  8.97$
  Q  0.6645  8.71$  8.33$  2.26$
  Q  0.6645  7.24$  9.19$  2.62$
  Q  -1.3290  8.13$  9.01$  2.38$
  Q  0.6645  10.41$  8.75$  4.08$
  Q  0.6645  9.66$  7.82$  4.96$
  Q  -1.3290  10.31$  8.07$  4.55$
  Q  0.6645  17.57$  7.52$  7.71$
  Q  0.6645  18.63$  6.31$  7.53$
  Q  -1.3290  18.26$  7.02$  7.92$
  Q  0.6645  19.28$  9.9$  10.97$
  Q  0.6645  18.69$  10.54$  9.73$
  Q  -1.3290  18.89$  9.89$  10.23$
  Q  0.6645  15.21$  19.91$  10.02$
  Q  0.6645  16.28$  19$  9.63$
  Q  -1.3290  15.55$  19.18$  9.97$
  Q  0.6645  14.21$  17.98$  4.13$
  Q  0.6645  15.51$  18.71$  3.66$
  Q  -1.3290  15.03$  18.04$  3.82$
  Q  0.6645  2.89$  10.04$  18.04$
  Q  0.6645  1.45$  10.53$  18.3$
  Q  -1.3290  2.18$  10.11$  18.46$
  Q  0.6645  20.06$  7.92$  8.13$
  Q  0.6645  20.41$  9.28$  8.77$
  Q  -1.3290  20.55$  8.59$  8.28$
  Q  0.6645  2.39$  15.2$  7.74$
  Q  0.6645  1.19$  14.21$  7.48$
  Q  -1.3290  1.55$  14.94$  7.72$
  Q  0.6645  11.86$  15.27$  21.04$
  Q  0.6645  13.01$  14.9$  20.12$
  Q  -1.3290  12.5$  15.42$  20.52$
  Q  0.6645  7.73$  4.73$  14.26$
  Q  0.6645  6.72$  4.64$  15.32$
  Q  -1.3290  6.96$  4.83$  14.55$
  Q  0.6645  4.67$  7.66$  8.17$
  Q  0.6645  6.13$  8.07$  7.74$
  Q  -1.3290  5.4$  7.65$  7.71$
  Q  0.6645  19.81$  14.43$  13.9$
  Q  0.6645  21.19$  15.11$  13.34$
  Q  -1.3290  20.56$  14.46$  13.46$
  Q  0.6645  4.3$  6.26$  6.22$
  Q  0.6645  3.6$  5.1$  6.9$
  Q  -1.3290  4.18$  5.46$  6.37$
  Q  0.6645  10.33$  6.16$  3.7$
  Q  0.6645  10.25$  5.9$  2.26$
  Q  -1.3290  10.56$  5.74$  3.03$
  Q  0.6645  19.43$  4.63$  10.55$
  Q  0.6645  18.55$  5.74$  9.77$
  Q  -1.3290  18.69$  5.03$  10.25$
  Q  0.6645  7.55$  7.55$  4.93$
  Q  0.6645  8.02$  6.71$  6.2$
  Q  -1.3290  7.94$  7.42$  5.67$
  Q  0.6645  4.22$  15.33$  4.38$
  Q  0.6645  2.91$  15.1$  3.53$
  Q  -1.3290  3.4$  15.34$  4.2$
  Q  0.6645  10.38$  16.15$  6.66$
  Q  0.6645  8.9$  16.68$  7.01$
  Q  -1.3290  9.77$  16.63$  7.02$
  Q  0.6645  2.26$  5.98$  11.92$
  Q  0.6645  2.71$  7.38$  11.8$
  Q  -1.3290  2.76$  6.61$  12.1$
  Q  0.6645  0.15$  7.32$  12.59$
  Q  0.6645  -0.48$  7.98$  11.42$
  Q  -1.3290  0.18$  7.74$  11.87$
  Q  0.6645  17.36$  15.78$  9.39$
  Q  0.6645  17.79$  16.6$  10.67$
  Q  -1.3290  17.54$  15.87$  10.23$
  Q  0.6645  20.97$  10.11$  5.25$
  Q  0.6645  20.85$  9.52$  6.71$
  Q  -1.3290  21.13$  10.08$  6.11$
  Q  0.6645  11.57$  1.24$  12.56$
  Q  0.6645  10.26$  1.9$  13.12$
  Q  -1.3290  10.81$  1.28$  12.9$
  Q  0.6645  12.73$  7.86$  14.16$
  Q  0.6645  13.35$  8.07$  15.45$
  Q  -1.3290  12.73$  8.13$  14.95$
  Q  0.6645  9.94$  21.51$  12.41$
  Q  0.6645  10.41$  20.93$  11.05$
  Q  -1.3290  9.94$  20.96$  11.77$
  Q  0.6645  14.72$  4.44$  2.37$
  Q  0.6645  13.66$  5.4$  2.81$
  Q  -1.3290  14.17$  5.05$  2.27$
  Q  0.6645  5.74$  10.87$  1.27$
  Q  0.6645  4.77$  10.74$  2.59$
  Q  -1.3290  5.28$  11.13$  1.95$
  Q  0.6645  14.57$  8.56$  3.9$
  Q  0.6645  15.88$  7.69$  4.26$
  Q  -1.3290  15.01$  7.88$  4.21$
  Q  0.6645  18.12$  12.2$  17.48$
  Q  0.6645  18.07$  13.36$  16.36$
  Q  -1.3290  17.91$  12.95$  17.13$
  Q  0.6645  10.62$  15.95$  10.99$
  Q  0.6645  11.63$  17.16$  10.85$
  Q  -1.3290  11.33$  16.45$  11.19$
  Q  0.6645  17.51$  10.09$  17.85$
  Q  0.6645  18.93$  9.79$  18.34$
  Q  -1.3290  18.18$  10.19$  18.34$
  Q  0.6645  10.36$  2.73$  6.62$
  Q  0.6645  9.58$  2.98$  5.33$
  Q  -1.3290  9.66$  2.91$  6.16$
  Q  0.6645  13.7$  12.64$  21.44$
  Q  0.6645  12.49$  11.77$  21.02$
  Q  -1.3290  12.98$  12.18$  21.59$
  Q  0.6645  15.04$  1.54$  9.27$
  Q  0.6645  15.62$  1.27$  10.69$
  Q  -1.3290  15.12$  1.66$  10.12$
  Q  0.6645  10.55$  11.07$  3.12$
  Q  0.6645  11.24$  11.04$  4.46$
  Q  -1.3290  11.05$  10.75$  3.69$
  Q  0.6645  9.15$  11.92$  1.18$
  Q  0.6645  8.7$  10.78$  2.14$
  Q  -1.3290  9.03$  11.54$  1.91$
  Q  0.6645  17.15$  17.39$  17.18$
  Q  0.6645  15.91$  18.42$  17.05$
  Q  -1.3290  16.55$  17.93$  16.78$
*
