! NoMOPrint PrintBasis #MINIPRINT SMALLPRINT LARGEPRINT
! ALLPOP XYZFILE
#! BP86 3-21G   TightSCF
! ENGRAD
! B3LYP NormalPNO PModel #DecontractAux
#! VerySlowConv 
 %maxcore 5000
 %scf  maxiter   500  end 

%pal
    nprocs 32
end

%basis
    NewGTO O    # New basis for oxygen
        "aug-cc-pVTZ"
    end
    NewGTO C    # New basis for carbon
        "aug-cc-pVTZ"
    end
    NewGTO H    # New basis for hydrogen
        "cc-pVTZ"
    end
end

* xyz 0   1
  C  9.82  8.97  10.98  #1
  H  10.32  8.66  10.09  #2
  H  8.93  8.4  11.03  #3
  C  9.58  10.47  10.79  #4
  H  8.93  10.68  9.99  #5
  H  9.1  10.82  11.72  #6
  C  10.96  11.17  10.61  #7
  H  11.34  10.84  9.62  #8
  H  11.69  10.88  11.36  #9
  C  10.96  12.71  10.55  #10
  H  10.32  12.97  11.37  #11
  H  10.56  13.1  9.6  #12
  O  12.22  13.35  10.79  #13
  H  12.81  13.09  10.1  #14
  O  10.66  8.7  12.15  #15
  H  11.58  8.54  11.97  #16
  O  13.45  12.87  8.4  #17
  H  12.65  12.96  7.93  #18
  H  14.04  13.51  7.98  #19
  O  7.39  10.9  13.87  #20
  H  7.09  10.1  13.34  #21
  H  8.36  10.9  13.77  #22
  O  9.23  6.59  13.5  #23
  H  8.53  6.2  12.92  #24
  H  9.88  7.02  12.89  #25
  O  7.57  5.52  11.67  #26
  H  7.36  6.15  10.93  #27
  H  7.24  4.71  11.27  #28
  O  15.02  10.74  9.75  #29
  H  14.82  11.38  9.06  #30
  H  15.39  9.95  9.36  #31
  O  7.05  8.26  12.8  #32
  H  6.5  7.58  12.52  #33
  H  7.72  7.91  13.31  #34
  O  12.77  15.84  10.04  #35
  H  12.51  14.97  10.33  #36
  H  13.73  15.79  9.98  #37
  O  10.43  15.73  8.65  #38
  H  9.82  15.31  9.26  #39
  H  11.31  15.8  9.03  #40
  O  9.17  10.82  7.57  #41
  H  9.63  11.69  7.58  #42
  H  9.01  10.51  6.65  #43
  O  6.95  9.52  9.05  #44
  H  7.58  10.21  8.81  #45
  H  6.29  9.91  9.64  #46
  O  6.93  9.77  16.43  #47
  H  7.27  8.88  16.49  #48
  H  7.09  9.98  15.48  #49
  O  6.28  12.82  12.25  #50
  H  5.44  13.07  12.65  #51
  H  6.72  12.3  12.98  #52
  O  6.1  6.72  9.16  #53
  H  5.15  6.7  9.17  #54
  H  6.37  7.63  9.28  #55
  O  10.49  4.48  10.97  #56
  H  10.97  5.06  11.59  #57
  H  9.74  5.1  10.79  #58
  O  10.47  8.4  8.15  #59
  H  10.03  9.28  8.14  #60
  H  9.79  7.66  8.36  #61
  O  6.31  3.39  10.48  #62
  H  6.05  2.56  10.91  #63
  H  5.45  3.76  10.24  #64
  O  10.78  4.48  14.96  #65
  H  10.34  3.66  15.16  #66
  H  10.07  5.04  14.53  #67
  O  8.78  6.31  8.83  #68
  H  7.83  6.52  8.84  #69
  H  8.77  5.4  8.68  #70
  O  13.98  8.31  13.05  #71
  H  14.36  9.26  12.94  #72
  H  14.81  7.95  13.41  #73
  O  16.64  12.1  7.24  #74
  H  17.03  11.76  6.41  #75
  H  16.19  12.89  6.93  #76
  O  6.95  3.07  13.6  #77
  H  7.62  3.05  12.93  #78
  H  7.32  3.62  14.26  #79
  O  10.12  11.13  14.04  #80
  H  10.71  11.91  14.07  #81
  H  10.66  10.47  13.64  #82
  O  14.62  10.94  12.58  #83
  H  14.66  11.05  11.63  #84
  H  13.91  11.61  12.76  #85
  O  10.58  13.26  7.01  #86
  H  10.59  14.14  7.27  #87
  H  10.68  13.32  6.09  #88
  O  12.82  7.04  8.99  #89
  H  12.01  7.55  8.82  #90
  H  12.57  6.16  8.7  #91
  O  16.64  9.33  7.97  #92
  H  16  9.04  7.28  #93
  H  16.5  10.27  7.94  #94
  O  12.46  6.46  11.82  #95
  H  12.54  6.69  10.88  #96
  H  12.96  7.14  12.3  #97
  O  15.13  14.76  7.03  #98
  H  14.79  14.72  6.09  #99
  H  14.9  15.6  7.42  #100
  O  16.9  13.05  9.91  #101
  H  17.07  12.94  8.97  #102
  H  16.72  12.15  10.3  #103
  Q  0.6645  10.09$  7.27$  6.39$
  Q  0.6645  9.18$  7.71$  5.14$
  Q  -1.3290  9.67$  7.17$  5.65$
  Q  0.6645  14.77$  10.52$  4.46$
  Q  0.6645  13.34$  10.58$  4.25$
  Q  -1.3290  14.03$  10.72$  4.7$
  Q  0.6645  14.24$  19.82$  4.66$
  Q  0.6645  13.36$  18.89$  5.48$
  Q  -1.3290  14.05$  19.09$  5.07$
  Q  0.6645  18.42$  17.96$  5.12$
  Q  0.6645  18.93$  17.17$  3.93$
  Q  -1.3290  18.53$  17.83$  4.28$
  Q  0.6645  3.88$  5.51$  10.22$
  Q  0.6645  3.19$  4.69$  9.04$
  Q  -1.3290  3.79$  4.91$  9.63$
  Q  0.6645  10.63$  4.48$  17.05$
  Q  0.6645  11.86$  4.24$  17.95$
  Q  -1.3290  11.12$  4.58$  17.74$
  Q  0.6645  19.81$  8.21$  10.48$
  Q  0.6645  20.3$  8.97$  11.82$
  Q  -1.3290  20.27$  8.35$  11.21$
  Q  0.6645  14.23$  4.06$  14.63$
  Q  0.6645  13.25$  3.47$  13.63$
  Q  -1.3290  13.8$  3.43$  14.28$
  Q  0.6645  6.34$  4.56$  5.18$
  Q  0.6645  5.68$  5.91$  4.83$
  Q  -1.3290  5.79$  5.07$  4.77$
  Q  0.6645  7.94$  13.36$  16.39$
  Q  0.6645  7.44$  11.79$  16.56$
  Q  -1.3290  7.59$  12.63$  16.75$
  Q  0.6645  7.69$  19.37$  11.91$
  Q  0.6645  7.86$  18.45$  10.66$
  Q  -1.3290  7.51$  18.71$  11.4$
  Q  0.6645  6.12$  9.22$  7.3$
  Q  0.6645  5.16$  10.23$  6.43$
  Q  -1.3290  5.45$  9.45$  6.78$
  Q  0.6645  15.64$  3.23$  16.68$
  Q  0.6645  16.5$  3.3$  15.36$
  Q  -1.3290  16.3$  3.49$  16.16$
  Q  0.6645  3.59$  8.79$  2.38$
  Q  0.6645  3.17$  9.75$  3.4$
  Q  -1.3290  3.46$  9.54$  2.69$
  Q  0.6645  14.03$  -0.37$  7.6$
  Q  0.6645  15.41$  0.4$  7.29$
  Q  -1.3290  14.56$  0.25$  7.22$
  Q  0.6645  4.44$  5.97$  17.57$
  Q  0.6645  3.84$  6.5$  18.91$
  Q  -1.3290  4.39$  6.48$  18.27$
  Q  0.6645  17.99$  9.36$  10.79$
  Q  0.6645  18.26$  9.97$  9.31$
  Q  -1.3290  18.27$  9.94$  10.17$
  Q  0.6645  15.57$  16.89$  14.49$
  Q  0.6645  16.6$  17.6$  13.68$
  Q  -1.3290  16.09$  17.51$  14.32$
  Q  0.6645  14.95$  15.28$  11.28$
  Q  0.6645  16.02$  14.62$  10.4$
  Q  -1.3290  15.53$  15.25$  10.67$
  Q  0.6645  13.05$  7.82$  18.48$
  Q  0.6645  13.17$  7.06$  17.23$
  Q  -1.3290  13.34$  7.19$  18.02$
  Q  0.6645  16.33$  11.2$  13.78$
  Q  0.6645  17.66$  11.29$  14.61$
  Q  -1.3290  16.92$  10.96$  14.33$
  Q  0.6645  7.59$  17.2$  6.43$
  Q  0.6645  8.81$  17.19$  5.31$
  Q  -1.3290  8.13$  17.51$  5.78$
  Q  0.6645  8.57$  14.31$  1.32$
  Q  0.6645  8.26$  14.3$  -0.07$
  Q  -1.3290  8.79$  14.23$  0.54$
  Q  0.6645  5.78$  16.3$  15.33$
  Q  0.6645  5.36$  14.9$  14.7$
  Q  -1.3290  5.44$  15.5$  15.33$
  Q  0.6645  19.69$  18.26$  10.42$
  Q  0.6645  19.87$  18.65$  11.88$
  Q  -1.3290  19.71$  18.1$  11.24$
  Q  0.6645  5.93$  12.15$  2.03$
  Q  0.6645  5.21$  10.83$  2.17$
  Q  -1.3290  5.79$  11.4$  2.41$
  Q  0.6645  13.71$  16.82$  12.67$
  Q  0.6645  13.62$  15.39$  12.95$
  Q  -1.3290  14.05$  16.09$  12.8$
  Q  0.6645  7.39$  9.06$  4.93$
  Q  0.6645  8.61$  9.96$  4.34$
  Q  -1.3290  8.19$  9.4$  4.89$
  Q  0.6645  14.4$  6.8$  5$
  Q  0.6645  13.75$  5.92$  3.82$
  Q  -1.3290  14.31$  6.49$  4.21$
  Q  0.6645  5.4$  18.29$  3.8$
  Q  0.6645  6.71$  18.39$  4.68$
  Q  -1.3290  5.84$  18.45$  4.48$
  Q  0.6645  19.03$  5.52$  9.51$
  Q  0.6645  20.53$  5.04$  9.42$
  Q  -1.3290  19.67$  4.95$  9.37$
  Q  0.6645  16.79$  0.19$  11.45$
  Q  0.6645  15.39$  0.53$  11.64$
  Q  -1.3290  15.97$  0.12$  11.28$
  Q  0.6645  3.21$  14.73$  4.45$
  Q  0.6645  3.81$  15.57$  5.59$
  Q  -1.3290  3.2$  15.29$  5.1$
  Q  0.6645  14.27$  3.6$  6.22$
  Q  0.6645  15.17$  4.35$  7.03$
  Q  -1.3290  14.94$  4.06$  6.31$
  Q  0.6645  10.98$  12.15$  1.08$
  Q  0.6645  10$  10.98$  0.61$
  Q  -1.3290  10.47$  11.48$  1.15$
  Q  0.6645  14.67$  18.13$  6.72$
  Q  0.6645  14.92$  18.5$  8.16$
  Q  -1.3290  15.01$  18.04$  7.48$
  Q  0.6645  4.54$  19.25$  7.28$
  Q  0.6645  5.41$  18.8$  6.26$
  Q  -1.3290  5.17$  18.81$  7.04$
  Q  0.6645  11.71$  13.96$  18.38$
  Q  0.6645  12.99$  13.09$  18.36$
  Q  -1.3290  12.33$  13.49$  18.01$
  Q  0.6645  17.19$  18.64$  15.22$
  Q  0.6645  18.6$  18.48$  15.53$
  Q  -1.3290  17.94$  18.94$  15.38$
  Q  0.6645  0.79$  3.91$  9.87$
  Q  0.6645  1.06$  5.36$  10.42$
  Q  -1.3290  0.87$  4.76$  9.85$
  Q  0.6645  18.31$  12.9$  11.69$
  Q  0.6645  18.86$  11.52$  11.21$
  Q  -1.3290  18.82$  12.25$  11.71$
  Q  0.6645  5.5$  7.86$  3.52$
  Q  0.6645  5.3$  8.3$  5.01$
  Q  -1.3290  5.54$  7.81$  4.36$
  Q  0.6645  4.24$  10.36$  18.81$
  Q  0.6645  4.88$  11.61$  19.41$
  Q  -1.3290  4.46$  10.88$  19.43$
  Q  0.6645  3.75$  8.67$  7.56$
  Q  0.6645  2.62$  7.57$  7.56$
  Q  -1.3290  3.15$  8.21$  7.91$
  Q  0.6645  2.76$  9.05$  15.7$
  Q  0.6645  2$  7.97$  14.93$
  Q  -1.3290  2.34$  8.73$  15.09$
  Q  0.6645  14.79$  13.62$  3.81$
  Q  0.6645  14.25$  12.72$  4.98$
  Q  -1.3290  14.43$  13.47$  4.56$
  Q  0.6645  17.87$  17.62$  11.55$
  Q  0.6645  16.6$  16.93$  11.52$
  Q  -1.3290  17.05$  17.6$  11.68$
  Q  0.6645  7.17$  15.7$  2.55$
  Q  0.6645  6.9$  14.65$  3.65$
  Q  -1.3290  7.18$  14.92$  2.88$
  Q  0.6645  6.74$  21.51$  7.75$
  Q  0.6645  7.84$  20.53$  7.92$
  Q  -1.3290  7.17$  20.97$  8.18$
  Q  0.6645  9.21$  1.78$  11.72$
  Q  0.6645  10$  3.07$  11.8$
  Q  -1.3290  9.7$  2.36$  12.08$
  Q  0.6645  8.65$  20.18$  4.48$
  Q  0.6645  8.52$  20.4$  2.99$
  Q  -1.3290  8.36$  20.04$  3.71$
  Q  0.6645  13.4$  13.92$  14.88$
  Q  0.6645  14.8$  13.63$  14.03$
  Q  -1.3290  13.94$  13.48$  14.33$
  Q  0.6645  7.16$  21.12$  13.89$
  Q  0.6645  8.08$  19.93$  14.45$
  Q  -1.3290  7.53$  20.34$  13.91$
  Q  0.6645  6.49$  15.15$  8.26$
  Q  0.6645  5.8$  16.33$  7.67$
  Q  -1.3290  6.37$  15.72$  7.67$
  Q  0.6645  12.18$  20.14$  3.4$
  Q  0.6645  10.82$  20.6$  4.04$
  Q  -1.3290  11.45$  20.05$  3.82$
  Q  0.6645  9.37$  5.02$  19.54$
  Q  0.6645  7.93$  4.63$  19.94$
  Q  -1.3290  8.74$  4.8$  20.08$
  Q  0.6645  10.07$  10.47$  15.99$
  Q  0.6645  10.05$  10.51$  17.59$
  Q  -1.3290  10.23$  10.19$  16.79$
  Q  0.6645  11.47$  13.43$  16.13$
  Q  0.6645  10.39$  14.37$  15.53$
  Q  -1.3290  11.02$  13.79$  15.52$
  Q  0.6645  2.83$  9.31$  13.4$
  Q  0.6645  2.27$  9.74$  12.04$
  Q  -1.3290  2.87$  9.45$  12.56$
  Q  0.6645  0.45$  8.66$  9.96$
  Q  0.6645  1.91$  8.99$  9.34$
  Q  -1.3290  1.26$  9.02$  9.95$
  Q  0.6645  11.28$  14.74$  13.65$
  Q  0.6645  11.17$  16.27$  13.43$
  Q  -1.3290  11.11$  15.45$  13.21$
  Q  0.6645  11.57$  18.2$  12.95$
  Q  0.6645  11.19$  18.48$  14.44$
  Q  -1.3290  11.65$  18.21$  13.81$
  Q  0.6645  16.73$  10.41$  3.19$
  Q  0.6645  16.45$  9.15$  4.04$
  Q  -1.3290  16.23$  9.81$  3.54$
  Q  0.6645  9.39$  17.56$  8.76$
  Q  0.6645  10.04$  18.47$  9.87$
  Q  -1.3290  9.4$  18.19$  9.37$
  Q  0.6645  18.87$  13.86$  9.69$
  Q  0.6645  19.91$  13.25$  8.83$
  Q  -1.3290  19.51$  13.9$  9.16$
  Q  0.6645  4.61$  3.74$  16.69$
  Q  0.6645  4.02$  4.41$  15.43$
  Q  -1.3290  4.08$  4.24$  16.26$
  Q  0.6645  12.39$  10.6$  16.42$
  Q  0.6645  13.7$  11.36$  15.77$
  Q  -1.3290  13.22$  10.77$  16.19$
  Q  0.6645  9.06$  21.17$  11.4$
  Q  0.6645  8.19$  21.37$  10.16$
  Q  -1.3290  8.46$  21.57$  10.95$
  Q  0.6645  5.3$  4.21$  13.65$
  Q  0.6645  3.8$  4.12$  13.36$
  Q  -1.3290  4.5$  4.51$  13.58$
  Q  0.6645  16.04$  15.3$  3.55$
  Q  0.6645  16.64$  16.72$  3.86$
  Q  -1.3290  16$  16.12$  3.75$
  Q  0.6645  19.06$  8.31$  16.32$
  Q  0.6645  19.38$  8.04$  14.94$
  Q  -1.3290  18.96$  7.95$  15.64$
  Q  0.6645  11.52$  20.73$  12.49$
  Q  0.6645  10.97$  22.12$  12.45$
  Q  -1.3290  10.96$  21.31$  12.64$
  Q  0.6645  15.71$  16.03$  18.86$
  Q  0.6645  15.25$  14.61$  18.99$
  Q  -1.3290  15.17$  15.4$  18.78$
  Q  0.6645  4.52$  10.36$  11.69$
  Q  0.6645  5.47$  11.55$  11.61$
  Q  -1.3290  5.07$  10.87$  11.29$
  Q  0.6645  11.47$  1.86$  16.28$
  Q  0.6645  12.8$  2.38$  17.04$
  Q  -1.3290  12.06$  1.92$  16.88$
  Q  0.6645  12.47$  19.4$  8.17$
  Q  0.6645  12.26$  20.73$  9.01$
  Q  -1.3290  12.69$  20.12$  8.59$
  Q  0.6645  0.45$  7.29$  11.58$
  Q  0.6645  1.85$  6.86$  11.64$
  Q  -1.3290  1.05$  6.79$  11.81$
  Q  0.6645  11.15$  7.83$  3.24$
  Q  0.6645  10.52$  6.82$  4.07$
  Q  -1.3290  10.89$  7.08$  3.39$
  Q  0.6645  11.95$  8.92$  20.41$
  Q  0.6645  13.16$  9.85$  20.81$
  Q  -1.3290  12.76$  9.22$  20.4$
  Q  0.6645  1.86$  9.34$  5.61$
  Q  0.6645  1.26$  10.36$  4.81$
  Q  -1.3290  1.88$  10.02$  5.2$
  Q  0.6645  14.7$  19.2$  14.78$
  Q  0.6645  13.27$  19.33$  14.96$
  Q  -1.3290  14.03$  19.64$  14.88$
  Q  0.6645  12.85$  15.98$  16.15$
  Q  0.6645  13.98$  15.06$  16.67$
  Q  -1.3290  13.63$  15.65$  16.15$
  Q  0.6645  18.4$  10.39$  4.84$
  Q  0.6645  18.49$  9.72$  6.24$
  Q  -1.3290  18.34$  9.76$  5.39$
  Q  0.6645  9.32$  15.4$  12.93$
  Q  0.6645  8.24$  16.46$  12.62$
  Q  -1.3290  8.56$  15.77$  13.01$
  Q  0.6645  14.15$  3.96$  18.73$
  Q  0.6645  13.97$  4.79$  17.49$
  Q  -1.3290  13.89$  4.1$  17.96$
  Q  0.6645  16.17$  6.77$  3.6$
  Q  0.6645  17.47$  6.88$  2.74$
  Q  -1.3290  17.01$  6.82$  3.46$
  Q  0.6645  5.99$  18.92$  14.4$
  Q  0.6645  5.23$  18.9$  15.73$
  Q  -1.3290  5.62$  18.55$  15.06$
  Q  0.6645  15.25$  12.31$  19.39$
  Q  0.6645  14.06$  12.26$  20.41$
  Q  -1.3290  14.53$  12.57$  19.76$
  Q  0.6645  17.77$  1.71$  14.43$
  Q  0.6645  16.26$  1.27$  14.51$
  Q  -1.3290  16.94$  1.67$  14.2$
  Q  0.6645  10.29$  15.21$  19.67$
  Q  0.6645  9.89$  14.05$  20.5$
  Q  -1.3290  10.38$  14.44$  19.96$
  Q  0.6645  2.53$  11.69$  13.25$
  Q  0.6645  3.1$  13.09$  13.44$
  Q  -1.3290  2.89$  12.34$  13.68$
  Q  0.6645  15.89$  20.28$  10.22$
  Q  0.6645  16.26$  18.82$  10.27$
  Q  -1.3290  15.94$  19.47$  9.9$
  Q  0.6645  12.38$  16.52$  19.75$
  Q  0.6645  13.23$  16.19$  18.47$
  Q  -1.3290  12.55$  16.52$  18.93$
  Q  0.6645  14.58$  3.95$  11.49$
  Q  0.6645  13.22$  4.8$  11.51$
  Q  -1.3290  13.72$  4.1$  11.61$
  Q  0.6645  11.53$  19.05$  6.01$
  Q  0.6645  11.96$  17.66$  6.36$
  Q  -1.3290  11.78$  18.46$  6.53$
  Q  0.6645  15.29$  7.32$  18.15$
  Q  0.6645  16.24$  8.45$  18.04$
  Q  -1.3290  16.01$  7.7$  18.25$
  Q  0.6645  4.52$  8.19$  17.51$
  Q  0.6645  4.87$  9.11$  16.47$
  Q  -1.3290  4.36$  8.82$  17.03$
  Q  0.6645  5.77$  3.89$  8.21$
  Q  0.6645  6.07$  2.72$  7.19$
  Q  -1.3290  6.03$  3.51$  7.47$
  Q  0.6645  19.3$  11.94$  13.85$
  Q  0.6645  20.28$  10.96$  14.31$
  Q  -1.3290  19.65$  11.52$  14.44$
  Q  0.6645  14.77$  1.73$  9.25$
  Q  0.6645  13.99$  2.64$  10.27$
  Q  -1.3290  14.07$  2.04$  9.65$
  Q  0.6645  4.11$  6.11$  12.2$
  Q  0.6645  3.61$  7.57$  11.94$
  Q  -1.3290  3.95$  6.82$  11.72$
  Q  0.6645  9.99$  19.9$  7.37$
  Q  0.6645  8.95$  19.25$  6.5$
  Q  -1.3290  9.36$  19.89$  6.84$
  Q  0.6645  9.71$  18.21$  17.74$
  Q  0.6645  10.89$  18.91$  18.4$
  Q  -1.3290  10.06$  18.72$  18.28$
  Q  0.6645  10.03$  1.75$  14.26$
  Q  0.6645  9.42$  1.57$  15.68$
  Q  -1.3290  10.02$  1.67$  15.09$
  Q  0.6645  16.84$  11.66$  17.83$
  Q  0.6645  16.84$  13.26$  17.65$
  Q  -1.3290  17.02$  12.48$  18$
  Q  0.6645  8.06$  15.6$  16.29$
  Q  0.6645  8.28$  15.39$  14.78$
  Q  -1.3290  8.45$  15.29$  15.61$
  Q  0.6645  3.69$  11.19$  5.14$
  Q  0.6645  4.89$  11.37$  4.28$
  Q  -1.3290  4.48$  11.37$  5.03$
  Q  0.6645  11.99$  13.42$  2.28$
  Q  0.6645  12.96$  13.96$  1.21$
  Q  -1.3290  12.53$  13.35$  1.67$
  Q  0.6645  2.47$  11.53$  17.15$
  Q  0.6645  2.65$  12.11$  15.7$
  Q  -1.3290  2.3$  12.07$  16.49$
  Q  0.6645  18.1$  15.69$  6.72$
  Q  0.6645  18.94$  15.05$  7.77$
  Q  -1.3290  18.65$  15.13$  6.98$
  Q  0.6645  7.61$  17.14$  17.89$
  Q  0.6645  6.84$  17.87$  16.73$
  Q  -1.3290  7.5$  17.6$  17.16$
  Q  0.6645  10.11$  13.46$  3.9$
  Q  0.6645  10.77$  14.89$  3.95$
  Q  -1.3290  10.76$  14.01$  4.07$
  Q  0.6645  19.26$  5.21$  12.43$
  Q  0.6645  19.62$  6.72$  12.46$
  Q  -1.3290  19.45$  5.95$  12.78$
  Q  0.6645  16.3$  2.57$  12.05$
  Q  0.6645  16.73$  3.01$  10.62$
  Q  -1.3290  16.3$  3.06$  11.35$
  Q  0.6645  10.05$  16.59$  16.21$
  Q  0.6645  11.07$  16.74$  17.35$
  Q  -1.3290  10.79$  16.81$  16.56$
  Q  0.6645  17.24$  7.42$  13.84$
  Q  0.6645  17.07$  8.9$  13.53$
  Q  -1.3290  17.21$  8.09$  13.35$
  Q  0.6645  12.27$  0.89$  10.12$
  Q  0.6645  10.72$  1.02$  9.85$
  Q  -1.3290  11.49$  0.64$  10$
  Q  0.6645  1.5$  3.12$  13.48$
  Q  0.6645  2.46$  2.6$  14.56$
  Q  -1.3290  2.24$  2.84$  13.79$
  Q  0.6645  9.46$  16.93$  3.05$
  Q  0.6645  10.52$  17.4$  4.05$
  Q  -1.3290  9.94$  16.89$  3.74$
  Q  0.6645  16.48$  14.58$  14.8$
  Q  0.6645  16.66$  14.85$  13.3$
  Q  -1.3290  16.48$  14.39$  13.97$
  Q  0.6645  6.15$  13.04$  18.03$
  Q  0.6645  4.71$  13.65$  18.37$
  Q  -1.3290  5.47$  13.31$  18.52$
  Q  0.6645  14.27$  7.98$  1.06$
  Q  0.6645  13.52$  7.42$  2.41$
  Q  -1.3290  13.61$  7.68$  1.57$
  Q  0.6645  17.24$  6.85$  9.91$
  Q  0.6645  17.93$  7.46$  8.74$
  Q  -1.3290  17.87$  6.98$  9.41$
  Q  0.6645  6.57$  0.61$  15.56$
  Q  0.6645  6.44$  1.54$  14.31$
  Q  -1.3290  6.19$  0.96$  14.88$
  Q  0.6645  14.16$  1.31$  14.83$
  Q  0.6645  14.49$  -0.24$  15.13$
  Q  -1.3290  14.6$  0.63$  15.18$
  Q  0.6645  10.81$  1.11$  7.33$
  Q  0.6645  9.44$  0.46$  7.17$
  Q  -1.3290  9.97$  1.04$  7.46$
  Q  0.6645  20.32$  13.93$  11.92$
  Q  0.6645  21.12$  14.28$  10.83$
  Q  -1.3290  21.03$  14.12$  11.6$
  Q  0.6645  4.6$  17.04$  10.4$
  Q  0.6645  5.74$  17.65$  11.28$
  Q  -1.3290  5.15$  17.05$  11.06$
  Q  0.6645  1.33$  13.97$  8.39$
  Q  0.6645  2.03$  13.55$  9.79$
  Q  -1.3290  1.39$  13.91$  9.26$
  Q  0.6645  20.41$  9.73$  8.19$
  Q  0.6645  20.4$  8.29$  7.72$
  Q  -1.3290  20.11$  8.96$  8.14$
  Q  0.6645  3.19$  2.69$  7.47$
  Q  0.6645  2.4$  1.95$  8.56$
  Q  -1.3290  2.98$  2.05$  7.96$
  Q  0.6645  17.36$  21.09$  6.9$
  Q  0.6645  16.65$  20.46$  8.06$
  Q  -1.3290  17.13$  21.05$  7.69$
  Q  0.6645  10.33$  8.31$  17.08$
  Q  0.6645  10.74$  6.83$  17.36$
  Q  -1.3290  10.22$  7.49$  17.36$
  Q  0.6645  11.87$  17.26$  10.69$
  Q  0.6645  12.25$  18.7$  10.67$
  Q  -1.3290  11.77$  18.07$  10.89$
  Q  0.6645  6.53$  0.21$  11.59$
  Q  0.6645  5.15$  0.11$  10.83$
  Q  -1.3290  5.75$  0.47$  11.32$
  Q  0.6645  8.49$  3.87$  4$
  Q  0.6645  9.06$  4.41$  2.62$
  Q  -1.3290  8.69$  3.81$  3.19$
  Q  0.6645  10.73$  7.49$  20.76$
  Q  0.6645  10.26$  7.91$  19.23$
  Q  -1.3290  10.36$  7.99$  20.13$
  Q  0.6645  5.62$  0.58$  6.03$
  Q  0.6645  4.97$  1.25$  7.28$
  Q  -1.3290  5.62$  1$  6.78$
  Q  0.6645  17.77$  5.43$  13.55$
  Q  0.6645  16.66$  4.78$  12.68$
  Q  -1.3290  16.97$  5.19$  13.35$
  Q  0.6645  16.41$  7.34$  11.53$
  Q  0.6645  14.91$  7.38$  11.23$
  Q  -1.3290  15.7$  7.21$  11.04$
  Q  0.6645  14.53$  10.8$  0.41$
  Q  0.6645  13.3$  11.6$  0.9$
  Q  -1.3290  13.75$  11.11$  0.33$
  Q  0.6645  7.24$  5.35$  15.99$
  Q  0.6645  7.16$  4.15$  16.86$
  Q  -1.3290  7.38$  4.56$  16.17$
  Q  0.6645  21.02$  11.72$  7.52$
  Q  0.6645  22.06$  11.95$  8.61$
  Q  -1.3290  21.41$  11.56$  8.27$
  Q  0.6645  11.62$  4.35$  7.14$
  Q  0.6645  10.28$  4.32$  6.24$
  Q  -1.3290  11.12$  4.41$  6.42$
  Q  0.6645  7.09$  14.23$  10.88$
  Q  0.6645  6.76$  15.65$  10.38$
  Q  -1.3290  7.04$  14.86$  10.3$
  Q  0.6645  12.67$  3.54$  9.01$
  Q  0.6645  11.46$  4.42$  9.44$
  Q  -1.3290  12.15$  4.21$  8.96$
  Q  0.6645  17.5$  1.29$  8.94$
  Q  0.6645  17.31$  2.61$  8.15$
  Q  -1.3290  17.21$  2.06$  8.78$
  Q  0.6645  4.36$  17.57$  8.18$
  Q  0.6645  3.05$  17.04$  8.7$
  Q  -1.3290  3.88$  17.15$  8.71$
  Q  0.6645  9.07$  9.42$  20.75$
  Q  0.6645  8.38$  10.82$  20.75$
  Q  -1.3290  8.61$  10.1$  21.12$
  Q  0.6645  7.87$  4.22$  6.93$
  Q  0.6645  8.45$  5.6$  6.27$
  Q  -1.3290  8.3$  4.73$  6.35$
  Q  0.6645  5.73$  13.36$  4.94$
  Q  0.6645  6.1$  14.65$  5.81$
  Q  -1.3290  5.8$  14.19$  5.17$
  Q  0.6645  4.5$  13.6$  9.5$
  Q  0.6645  4.13$  12.14$  10.04$
  Q  -1.3290  3.99$  12.9$  9.74$
  Q  0.6645  4.14$  15.17$  16.74$
  Q  0.6645  3$  14.09$  16.99$
  Q  -1.3290  3.53$  14.73$  17.19$
  Q  0.6645  10.55$  19.98$  16.01$
  Q  0.6645  10.07$  20.61$  14.63$
  Q  -1.3290  10.04$  20.09$  15.32$
  Q  0.6645  3.94$  4.68$  5.39$
  Q  0.6645  2.59$  3.93$  5.5$
  Q  -1.3290  3.28$  4.35$  5.8$
  Q  0.6645  9.97$  12.31$  19.3$
  Q  0.6645  8.66$  12.08$  18.4$
  Q  -1.3290  9.33$  11.87$  18.9$
  Q  0.6645  6.88$  7$  17.99$
  Q  0.6645  8.21$  7.26$  17.35$
  Q  -1.3290  7.4$  7.11$  17.36$
  Q  0.6645  14.26$  20.02$  12.32$
  Q  0.6645  14.01$  19.89$  10.88$
  Q  -1.3290  13.78$  19.94$  11.66$
  Q  0.6645  17.98$  4.58$  16.29$
  Q  0.6645  18.71$  5.86$  16.1$
  Q  -1.3290  18.64$  5.06$  16.31$
  Q  0.6645  17.71$  15.55$  16.58$
  Q  0.6645  16.21$  16.05$  16.44$
  Q  -1.3290  16.87$  15.49$  16.39$
  Q  0.6645  17.7$  12.46$  3.22$
  Q  0.6645  18.92$  11.65$  2.71$
  Q  -1.3290  18.27$  11.81$  3.23$
  Q  0.6645  12.99$  7.32$  14.82$
  Q  0.6645  12.26$  5.95$  15.06$
  Q  -1.3290  12.68$  6.65$  15.28$
  Q  0.6645  11.95$  4.35$  4.59$
  Q  0.6645  12.14$  4.94$  3.2$
  Q  -1.3290  12.28$  4.42$  3.82$
  Q  0.6645  0.68$  6.37$  6.77$
  Q  0.6645  2.21$  5.75$  6.46$
  Q  -1.3290  1.54$  6.34$  6.5$
  Q  0.6645  1$  10.92$  10.71$
  Q  0.6645  0.35$  12.1$  11.42$
  Q  -1.3290  0.78$  11.41$  11.39$
  Q  0.6645  13.04$  15.5$  5.2$
  Q  0.6645  13.93$  16.68$  5.04$
  Q  -1.3290  13.28$  16.26$  5.37$
  Q  0.6645  5.28$  20.09$  9.09$
  Q  0.6645  5.71$  19.46$  10.45$
  Q  -1.3290  5.17$  19.84$  9.9$
  Q  0.6645  16.43$  10.2$  16.43$
  Q  0.6645  15.12$  10.15$  17.32$
  Q  -1.3290  15.97$  10.23$  17.16$
  Q  0.6645  4.74$  15.55$  12.26$
  Q  0.6645  3.42$  15.17$  12.88$
  Q  -1.3290  4.22$  15.01$  12.64$
  Q  0.6645  13.82$  8.98$  6.4$
  Q  0.6645  13.88$  7.86$  7.4$
  Q  -1.3290  14.15$  8.28$  6.75$
  Q  0.6645  18.57$  14.6$  13.62$
  Q  0.6645  19.23$  15.87$  13.02$
  Q  -1.3290  18.71$  15.18$  13.04$
  Q  0.6645  11.66$  10.65$  2.57$
  Q  0.6645  12.37$  9.38$  2.05$
  Q  -1.3290  12.05$  9.88$  2.64$
  Q  0.6645  9.13$  2.46$  8.43$
  Q  0.6645  7.77$  2.97$  9.15$
  Q  -1.3290  8.58$  3.01$  8.84$
  Q  0.6645  16.89$  17.98$  7.23$
  Q  0.6645  18.39$  18.03$  7.57$
  Q  -1.3290  17.71$  17.9$  7.05$
  Q  0.6645  9.08$  11.76$  2.74$
  Q  0.6645  7.75$  11.53$  3.36$
  Q  -1.3290  8.56$  11.7$  3.36$
  Q  0.6645  19.87$  12.17$  5.35$
  Q  0.6645  19.27$  13.06$  6.4$
  Q  -1.3290  19.67$  12.37$  6.13$
*
