! NoMOPrint PrintBasis #MINIPRINT SMALLPRINT LARGEPRINT
! ALLPOP XYZFILE
#! BP86 3-21G   TightSCF
! ENGRAD
! B3LYP NormalPNO PModel #DecontractAux
#! VerySlowConv 
 %maxcore 5000
 %scf  maxiter   500  end 

%pal
    nprocs 32
end

%basis
    NewGTO O    # New basis for oxygen
        "aug-cc-pVTZ"
    end
    NewGTO C    # New basis for carbon
        "aug-cc-pVTZ"
    end
    NewGTO H    # New basis for hydrogen
        "cc-pVTZ"
    end
end

* xyz 0   1
  C  11.47  10.53  9.44  #1
  H  10.43  10.66  9.19  #2
  H  11.7  9.45  9.55  #3
  C  11.85  11.21  10.72  #4
  H  12.9  11.17  10.93  #5
  H  11.56  12.27  10.54  #6
  C  11.15  10.57  11.95  #7
  H  11.94  10.25  12.6  #8
  H  10.55  9.78  11.48  #9
  C  10.01  11.34  12.61  #10
  H  9.15  11.39  11.94  #11
  H  10.36  12.36  12.85  #12
  O  9.63  10.68  13.86  #13
  H  8.92  11.24  14.26  #14
  O  12.31  11.11  8.38  #15
  H  12.19  10.62  7.56  #16
  O  13.13  13.53  7.49  #17
  H  13.55  14.14  8.21  #18
  H  12.92  12.65  7.84  #19
  O  8.84  14.47  12.71  #20
  H  8.49  15.34  12.93  #21
  H  8.41  13.88  13.36  #22
  O  12.9  14.7  10.24  #23
  H  13.87  14.69  10.2  #24
  H  12.61  14.6  11.18  #25
  O  12.39  6.95  9.2  #26
  H  13.07  7.39  9.67  #27
  H  12.9  6.21  8.8  #28
  O  11.72  14.64  12.61  #29
  H  10.79  14.64  12.76  #30
  H  12.09  15.38  13.13  #31
  O  10.6  17.28  14.89  #32
  H  11.33  17.33  14.33  #33
  H  9.82  17.46  14.31  #34
  O  11.19  9.91  5.62  #35
  H  10.54  10.56  5.9  #36
  H  11.1  9.13  6.19  #37
  O  13.25  16.74  13.71  #38
  H  13.8  17.12  12.98  #39
  H  13.87  16.23  14.2  #40
  O  15.02  16.07  8.3  #41
  H  14.56  16.75  7.83  #42
  H  15.89  16  7.84  #43
  O  13.87  14.06  5.09  #44
  H  14.34  14.85  4.88  #45
  H  13.68  14.01  6.05  #46
  O  14.27  3.96  9.88  #47
  H  14.32  4.13  8.95  #48
  H  13.45  3.44  10.03  #49
  O  10.62  7.59  7.21  #50
  H  9.87  7.59  7.78  #51
  H  11.31  7.24  7.78  #52
  O  13.73  8.13  11.19  #53
  H  14.24  8.95  11.21  #54
  H  14.31  7.52  11.67  #55
  O  10.56  8.53  15.01  #56
  H  10.18  9.37  14.78  #57
  H  9.81  7.92  15.06  #58
  O  14.69  17.46  10.65  #59
  H  14.93  16.81  10  #60
  H  15.49  18.06  10.61  #61
  O  6.97  12.52  10.44  #62
  H  7.14  11.79  9.83  #63
  H  6.08  12.87  10.23  #64
  O  7.89  12.66  14.66  #65
  H  7.02  12.37  14.28  #66
  H  7.85  12.51  15.61  #67
  O  7.75  10.7  8.32  #68
  H  8.27  11.01  7.54  #69
  H  7.45  9.81  8.09  #70
  O  13.97  12.95  13.29  #71
  H  14.07  12.1  12.88  #72
  H  13.04  13.22  13.05  #73
  O  5.99  11.26  12.92  #74
  H  6.05  10.33  12.7  #75
  H  6.42  11.77  12.21  #76
  O  15.05  10.6  11.77  #77
  H  15.41  11.04  10.97  #78
  H  15.75  10.48  12.42  #79
  O  8.7  14.66  10.05  #80
  H  8.97  14.49  11  #81
  H  8.24  13.85  9.89  #82
  O  15.6  13.86  10.73  #83
  H  15.14  13.47  11.55  #84
  H  15.9  13.11  10.21  #85
  O  8.3  8.59  12.32  #86
  H  8.37  7.58  12.48  #87
  H  8.68  9.09  13.04  #88
  O  9.74  6.74  10.21  #89
  H  9.81  6.93  11.15  #90
  H  10.62  6.77  9.82  #91
  O  13.8  9.24  5.03  #92
  H  13.91  9.4  4.06  #93
  H  12.84  9.34  5.21  #94
  O  11.16  7.3  12.57  #95
  H  11.69  7.7  11.88  #96
  H  11.18  7.96  13.25  #97
  O  14.51  5.33  7.5  #98
  H  14.41  5.65  6.61  #99
  H  15.07  5.96  8  #100
  O  8.15  16.9  13.64  #101
  H  7.49  17.06  14.31  #102
  H  8.06  17.56  12.9  #103
  O  10.41  14.13  7.61  #104
  H  10.02  14.47  8.43  #105
  H  11.37  14.03  7.82  #106
  O  10.84  16.75  10.06  #107
  H  10.04  16.48  10.44  #108
  H  11.44  15.9  10  #109
  Q  0.6645  4.63$  2.92$  12.67$
  Q  0.6645  5.47$  3.7$  13.67$
  Q  -1.3290  5.13$  3.54$  12.92$
  Q  0.6645  7.34$  7.38$  7.56$
  Q  0.6645  7.04$  8.57$  6.58$
  Q  -1.3290  6.95$  8.1$  7.26$
  Q  0.6645  8.33$  5.95$  9.02$
  Q  0.6645  8.11$  5.11$  7.79$
  Q  -1.3290  8.13$  5.83$  8.18$
  Q  0.6645  19.82$  10.94$  8.61$
  Q  0.6645  19.71$  9.66$  9.35$
  Q  -1.3290  19.54$  10.47$  9.22$
  Q  0.6645  3.18$  6.25$  10.66$
  Q  0.6645  2.65$  4.99$  10.11$
  Q  -1.3290  2.59$  5.82$  10.35$
  Q  0.6645  11.76$  7.56$  2.7$
  Q  0.6645  11.83$  6.53$  3.88$
  Q  -1.3290  11.76$  6.79$  3.08$
  Q  0.6645  17.32$  3.19$  5.53$
  Q  0.6645  16.14$  4.23$  5.72$
  Q  -1.3290  16.77$  3.67$  5.98$
  Q  0.6645  11.58$  15.07$  0.43$
  Q  0.6645  10.59$  14.03$  0.97$
  Q  -1.3290  10.91$  14.58$  0.41$
  Q  0.6645  9.81$  20.8$  13.09$
  Q  0.6645  11.18$  20.68$  13.8$
  Q  -1.3290  10.39$  20.47$  13.62$
  Q  0.6645  4.81$  20.09$  8.75$
  Q  0.6645  5.22$  18.64$  8.77$
  Q  -1.3290  4.67$  19.27$  8.81$
  Q  0.6645  4.1$  10.05$  11.12$
  Q  0.6645  4.46$  9.26$  12.32$
  Q  -1.3290  3.94$  9.58$  11.77$
  Q  0.6645  5.4$  10.38$  9.03$
  Q  0.6645  4.39$  11.01$  7.97$
  Q  -1.3290  4.66$  10.59$  8.67$
  Q  0.6645  8.66$  12.11$  5.63$
  Q  0.6645  9.76$  12.61$  6.73$
  Q  -1.3290  9.24$  12.05$  6.31$
  Q  0.6645  14.49$  5.24$  11.6$
  Q  0.6645  15.28$  5.71$  12.9$
  Q  -1.3290  14.59$  5.53$  12.39$
  Q  0.6645  4.27$  14.63$  9.09$
  Q  0.6645  4.78$  13.34$  8.4$
  Q  -1.3290  4.82$  13.99$  8.93$
  Q  0.6645  7.54$  5.05$  11.9$
  Q  0.6645  8.8$  5.25$  12.78$
  Q  -1.3290  8.03$  5.41$  12.47$
  Q  0.6645  10.69$  9.45$  20.64$
  Q  0.6645  11.04$  11$  20.79$
  Q  -1.3290  11.03$  10.16$  21.02$
  Q  0.6645  6.59$  5.34$  17.76$
  Q  0.6645  5.62$  5.97$  17.01$
  Q  -1.3290  6.36$  5.69$  17.08$
  Q  0.6645  18.94$  17.13$  8.8$
  Q  0.6645  18.11$  18.17$  8.05$
  Q  -1.3290  18.77$  17.9$  8.52$
  Q  0.6645  13.37$  5.56$  14.22$
  Q  0.6645  13.69$  4.23$  15.04$
  Q  -1.3290  13.39$  5.02$  14.91$
  Q  0.6645  3.23$  13.53$  17.84$
  Q  0.6645  3.08$  12.2$  18.61$
  Q  -1.3290  2.82$  12.83$  18.11$
  Q  0.6645  9.46$  0.91$  11.18$
  Q  0.6645  10.33$  0.92$  12.35$
  Q  -1.3290  10.05$  0.58$  11.66$
  Q  0.6645  20.34$  12.95$  16.38$
  Q  0.6645  20.23$  11.57$  15.66$
  Q  -1.3290  19.94$  12.31$  16.03$
  Q  0.6645  12.35$  4.71$  17.72$
  Q  0.6645  11.63$  4.32$  18.98$
  Q  -1.3290  11.68$  4.71$  18.23$
  Q  0.6645  4.95$  3.03$  15.58$
  Q  0.6645  6.14$  4.03$  16.04$
  Q  -1.3290  5.77$  3.32$  15.65$
  Q  0.6645  21.5$  9.02$  5$
  Q  0.6645  20.71$  8.23$  6.1$
  Q  -1.3290  20.94$  8.93$  5.62$
  Q  0.6645  17.67$  14.96$  14.15$
  Q  0.6645  18.39$  15.99$  15.06$
  Q  -1.3290  18$  15.72$  14.35$
  Q  0.6645  15.42$  8.77$  5.87$
  Q  0.6645  16.84$  9.27$  6.05$
  Q  -1.3290  16.21$  8.72$  6.11$
  Q  0.6645  11.71$  2.12$  6.93$
  Q  0.6645  11.85$  2.65$  8.29$
  Q  -1.3290  11.65$  2.7$  7.5$
  Q  0.6645  4.59$  11.71$  14.55$
  Q  0.6645  4.83$  10.94$  15.85$
  Q  -1.3290  4.5$  11.55$  15.37$
  Q  0.6645  4.01$  8.42$  9$
  Q  0.6645  4.91$  8.1$  7.87$
  Q  -1.3290  4.35$  7.9$  8.47$
  Q  0.6645  14.54$  13.68$  15.06$
  Q  0.6645  14.95$  14.93$  15.76$
  Q  -1.3290  14.58$  14.19$  15.72$
  Q  0.6645  13.09$  18.41$  10.68$
  Q  0.6645  11.68$  18.05$  10.89$
  Q  -1.3290  12.34$  18.56$  10.98$
  Q  0.6645  16.09$  19.51$  14.17$
  Q  0.6645  15.12$  19.68$  15.29$
  Q  -1.3290  15.36$  19.36$  14.56$
  Q  0.6645  19.56$  17.52$  11.65$
  Q  0.6645  18.66$  16.8$  12.56$
  Q  -1.3290  18.86$  17.42$  12.05$
  Q  0.6645  5.7$  5.37$  6.41$
  Q  0.6645  4.69$  5.13$  5.23$
  Q  -1.3290  5.44$  5.35$  5.59$
  Q  0.6645  9.74$  18.9$  17.61$
  Q  0.6645  11.07$  18.07$  17.84$
  Q  -1.3290  10.39$  18.56$  18.06$
  Q  0.6645  0.53$  10.37$  7.82$
  Q  0.6645  1.28$  10.13$  9.19$
  Q  -1.3290  1.18$  10.16$  8.36$
  Q  0.6645  7.34$  3.33$  10.7$
  Q  0.6645  5.95$  3.89$  11.15$
  Q  -1.3290  6.68$  3.84$  10.67$
  Q  0.6645  2.17$  11.88$  16.03$
  Q  0.6645  0.85$  12.79$  16.26$
  Q  -1.3290  1.32$  12.1$  15.98$
  Q  0.6645  18.37$  12.69$  14.76$
  Q  0.6645  18.51$  12.59$  13.28$
  Q  -1.3290  18.09$  12.7$  13.98$
  Q  0.6645  16.35$  16.37$  3.8$
  Q  0.6645  15.23$  16.56$  2.98$
  Q  -1.3290  15.66$  16.1$  3.46$
  Q  0.6645  15.56$  4.85$  3.51$
  Q  0.6645  15.61$  6.14$  4.13$
  Q  -1.3290  15.46$  5.34$  4.13$
  Q  0.6645  20.1$  6.13$  6.07$
  Q  0.6645  20.02$  6.81$  7.47$
  Q  -1.3290  20.38$  6.59$  6.72$
  Q  0.6645  9.9$  6.69$  19.7$
  Q  0.6645  10.12$  5.95$  18.4$
  Q  -1.3290  9.69$  6.39$  18.95$
  Q  0.6645  11.66$  13.97$  17.09$
  Q  0.6645  13.18$  13.84$  17.12$
  Q  -1.3290  12.4$  13.76$  17.42$
  Q  0.6645  5.53$  8.58$  14.38$
  Q  0.6645  6.52$  8.15$  13.18$
  Q  -1.3290  5.77$  8.38$  13.59$
  Q  0.6645  8.01$  13.14$  17.99$
  Q  0.6645  8.33$  14.15$  16.84$
  Q  -1.3290  7.84$  13.65$  17.33$
  Q  0.6645  15.54$  17.39$  14.99$
  Q  0.6645  16.44$  16.18$  14.91$
  Q  -1.3290  15.75$  16.6$  15.16$
  Q  0.6645  3.28$  18.11$  14.54$
  Q  0.6645  2.86$  16.6$  14.52$
  Q  -1.3290  2.77$  17.44$  14.36$
  Q  0.6645  16.45$  17.34$  16.9$
  Q  0.6645  16.6$  18.3$  18.23$
  Q  -1.3290  16.83$  17.86$  17.5$
  Q  0.6645  17.52$  7.11$  11.8$
  Q  0.6645  17.42$  8.58$  11.75$
  Q  -1.3290  17.32$  7.84$  11.44$
  Q  0.6645  20.47$  14.19$  12.62$
  Q  0.6645  21.96$  14.36$  12.7$
  Q  -1.3290  21.16$  14.62$  12.82$
  Q  0.6645  13.19$  11.4$  3.48$
  Q  0.6645  13.31$  12.84$  4.04$
  Q  -1.3290  13.1$  12.26$  3.47$
  Q  0.6645  7.72$  9.75$  18.87$
  Q  0.6645  8.1$  8.33$  18.45$
  Q  -1.3290  7.6$  8.99$  18.53$
  Q  0.6645  12.91$  17.62$  16$
  Q  0.6645  13.27$  18.63$  17.06$
  Q  -1.3290  12.89$  17.93$  16.77$
  Q  0.6645  1.84$  14.86$  16.21$
  Q  0.6645  2.18$  14.08$  15.03$
  Q  -1.3290  2.23$  14.74$  15.47$
  Q  0.6645  15.07$  3.06$  1.63$
  Q  0.6645  14.43$  4.39$  1.58$
  Q  -1.3290  15.01$  3.89$  1.81$
  Q  0.6645  19.45$  7.25$  9.81$
  Q  0.6645  20.78$  7.97$  10.02$
  Q  -1.3290  20.04$  7.81$  9.64$
  Q  0.6645  17.95$  4.36$  9.44$
  Q  0.6645  17.9$  5.77$  9.07$
  Q  -1.3290  18.3$  5.1$  9.39$
  Q  0.6645  11.07$  6.28$  6$
  Q  0.6645  11.55$  4.91$  5.46$
  Q  -1.3290  11.54$  5.75$  5.57$
  Q  0.6645  13.39$  11.78$  19.2$
  Q  0.6645  14.37$  12.9$  18.95$
  Q  -1.3290  14.13$  12.12$  19.15$
  Q  0.6645  8.81$  3.45$  6.04$
  Q  0.6645  9.64$  3.25$  7.29$
  Q  -1.3290  8.93$  3.37$  6.87$
  Q  0.6645  12.89$  20.12$  12.6$
  Q  0.6645  13.81$  20.57$  13.83$
  Q  -1.3290  13.22$  20.65$  13.22$
  Q  0.6645  9.79$  15.53$  17.76$
  Q  0.6645  10.15$  15.98$  16.32$
  Q  -1.3290  9.8$  15.47$  16.9$
  Q  0.6645  19.58$  15.07$  9.35$
  Q  0.6645  21.03$  14.86$  9$
  Q  -1.3290  20.2$  15.11$  8.84$
  Q  0.6645  9.36$  19.12$  12.47$
  Q  0.6645  8.63$  19.58$  11.08$
  Q  -1.3290  8.81$  19.1$  11.78$
  Q  0.6645  17.71$  11.39$  8.98$
  Q  0.6645  16.81$  12.19$  8.13$
  Q  -1.3290  17.11$  11.91$  8.83$
  Q  0.6645  1.13$  10.52$  21.34$
  Q  0.6645  2.38$  10.74$  20.33$
  Q  -1.3290  1.63$  10.41$  20.63$
  Q  0.6645  6.32$  11.93$  21.99$
  Q  0.6645  6.13$  13.17$  21.13$
  Q  -1.3290  6.44$  12.4$  21.3$
  Q  0.6645  3.72$  8.01$  5.74$
  Q  0.6645  4.9$  7.21$  5.15$
  Q  -1.3290  4.37$  7.88$  5.22$
  Q  0.6645  5.34$  15.54$  21.05$
  Q  0.6645  4.6$  14.57$  20.26$
  Q  -1.3290  5.04$  14.78$  20.89$
  Q  0.6645  20.8$  11.63$  3.09$
  Q  0.6645  19.36$  12.07$  2.65$
  Q  -1.3290  19.99$  11.83$  3.2$
  Q  0.6645  7.67$  6.72$  2.81$
  Q  0.6645  7.24$  5.81$  1.65$
  Q  -1.3290  7.45$  6.53$  2.01$
  Q  0.6645  5.24$  18.65$  14.75$
  Q  0.6645  5.2$  19.78$  13.83$
  Q  -1.3290  4.95$  19.35$  14.49$
  Q  0.6645  4.68$  5.65$  8.51$
  Q  0.6645  5.95$  4.76$  8.93$
  Q  -1.3290  5.25$  5$  8.49$
  Q  0.6645  17.32$  6.47$  13.73$
  Q  0.6645  16.65$  5.79$  14.84$
  Q  -1.3290  16.66$  6.25$  14.15$
  Q  0.6645  2.27$  8.22$  15.4$
  Q  0.6645  1.73$  8.68$  16.76$
  Q  -1.3290  2.33$  8.4$  16.23$
  Q  0.6645  7.62$  3.49$  19$
  Q  0.6645  8.33$  4.91$  19.21$
  Q  -1.3290  7.66$  4.33$  19.14$
  Q  0.6645  14.15$  4.11$  5.06$
  Q  0.6645  13.4$  3.36$  6.26$
  Q  -1.3290  13.83$  3.43$  5.5$
  Q  0.6645  4.25$  12.98$  4.73$
  Q  0.6645  3.96$  13.82$  3.48$
  Q  -1.3290  3.99$  13.64$  4.31$
  Q  0.6645  16.69$  9.73$  13.91$
  Q  0.6645  17.44$  10.99$  13.63$
  Q  -1.3290  17.22$  10.19$  13.49$
  Q  0.6645  13.5$  18.84$  7.27$
  Q  0.6645  13.57$  18.23$  5.94$
  Q  -1.3290  13.65$  18.24$  6.79$
  Q  0.6645  12.22$  7.3$  18.41$
  Q  0.6645  13.26$  8.3$  18.51$
  Q  -1.3290  12.6$  7.91$  18.8$
  Q  0.6645  11.43$  9.49$  3.79$
  Q  0.6645  11.35$  10.35$  2.53$
  Q  -1.3290  11.54$  9.67$  2.96$
  Q  0.6645  6$  13.96$  15.9$
  Q  0.6645  4.52$  14.39$  16.01$
  Q  -1.3290  5.33$  14.44$  15.76$
  Q  0.6645  5.69$  16.42$  15.61$
  Q  0.6645  6.61$  17.56$  16.4$
  Q  -1.3290  6.18$  17.16$  15.77$
  Q  0.6645  7.84$  17.69$  7.99$
  Q  0.6645  7.13$  17.52$  9.39$
  Q  -1.3290  7.4$  17.95$  8.7$
  Q  0.6645  15.75$  8.18$  2.91$
  Q  0.6645  16.93$  8.22$  3.75$
  Q  -1.3290  16.43$  7.86$  3.25$
  Q  0.6645  12.91$  16.81$  1.34$
  Q  0.6645  13.87$  15.64$  1.67$
  Q  -1.3290  13.39$  16.13$  1.18$
  Q  0.6645  5.56$  2.97$  7.11$
  Q  0.6645  6.98$  2.37$  7.13$
  Q  -1.3290  6.14$  2.35$  7.07$
  Q  0.6645  11.51$  12.45$  2.62$
  Q  0.6645  10.02$  12.74$  2.92$
  Q  -1.3290  10.66$  12.48$  2.45$
  Q  0.6645  5.11$  14.25$  13.62$
  Q  0.6645  5.21$  15.17$  12.34$
  Q  -1.3290  4.88$  14.56$  12.86$
  Q  0.6645  12.42$  0.84$  13.22$
  Q  0.6645  11.48$  1.17$  14.35$
  Q  -1.3290  11.87$  1.32$  13.63$
  Q  0.6645  17.75$  5.53$  16.9$
  Q  0.6645  17.69$  4.11$  16.29$
  Q  -1.3290  17.38$  4.86$  16.5$
  Q  0.6645  16.71$  4.86$  1.32$
  Q  0.6645  17.26$  6.22$  1.8$
  Q  -1.3290  17.13$  5.6$  1.24$
  Q  0.6645  12.86$  10.41$  0$
  Q  0.6645  14.05$  11.25$  -0.63$
  Q  -1.3290  13.63$  10.73$  -0.08$
  Q  0.6645  9.59$  20.1$  7.41$
  Q  0.6645  9.5$  20.72$  5.86$
  Q  -1.3290  9.37$  20.17$  6.51$
  Q  0.6645  11.03$  5.51$  13$
  Q  0.6645  10.93$  4.62$  14.3$
  Q  -1.3290  10.69$  4.93$  13.55$
  Q  0.6645  7.09$  9.93$  4.44$
  Q  0.6645  7.89$  8.67$  4.6$
  Q  -1.3290  7.49$  9.36$  4.88$
  Q  0.6645  9.21$  4.52$  15.94$
  Q  0.6645  10.29$  4.22$  16.93$
  Q  -1.3290  9.74$  4.02$  16.3$
  Q  0.6645  9.61$  9.98$  0.46$
  Q  0.6645  9.4$  10.97$  1.6$
  Q  -1.3290  9.19$  10.3$  1.12$
  Q  0.6645  19.19$  9.36$  4.94$
  Q  0.6645  18.69$  10.53$  4.31$
  Q  -1.3290  18.61$  9.76$  4.54$
  Q  0.6645  11.01$  19.71$  9.8$
  Q  0.6645  10.15$  20.78$  10.01$
  Q  -1.3290  10.56$  20.36$  9.51$
  Q  0.6645  2.18$  12.98$  12.54$
  Q  0.6645  2.65$  14.45$  12.64$
  Q  -1.3290  2.14$  13.82$  12.38$
  Q  0.6645  4.76$  9.78$  5.11$
  Q  0.6645  5.43$  10.92$  5.72$
  Q  -1.3290  4.97$  10.59$  5.14$
  Q  0.6645  17.84$  16.45$  10.79$
  Q  0.6645  17.05$  15.2$  10.68$
  Q  -1.3290  17.69$  15.67$  10.54$
  Q  0.6645  15.41$  4.94$  19.53$
  Q  0.6645  15.81$  4.38$  18.13$
  Q  -1.3290  15.39$  4.4$  18.88$
  Q  0.6645  2.85$  10.83$  2.14$
  Q  0.6645  3.94$  10.92$  3.17$
  Q  -1.3290  3.62$  10.73$  2.38$
  Q  0.6645  19.22$  13.11$  0.55$
  Q  0.6645  18.01$  13.12$  1.47$
  Q  -1.3290  18.78$  13.31$  1.25$
  Q  0.6645  7.18$  15.46$  10.44$
  Q  0.6645  5.77$  15.48$  10.19$
  Q  -1.3290  6.46$  15.79$  10.53$
  Q  0.6645  9.35$  12.09$  19.47$
  Q  0.6645  7.92$  12$  20.03$
  Q  -1.3290  8.51$  11.99$  19.42$
  Q  0.6645  6.04$  15.37$  5.58$
  Q  0.6645  7.46$  15.71$  5.96$
  Q  -1.3290  6.85$  15.2$  5.7$
  Q  0.6645  2.2$  15.6$  9.33$
  Q  0.6645  3.11$  16.58$  10.01$
  Q  -1.3290  2.91$  16.05$  9.41$
  Q  0.6645  10.6$  17.93$  2$
  Q  0.6645  10.84$  16.49$  2.86$
  Q  -1.3290  11.03$  17.29$  2.43$
  Q  0.6645  7.12$  4.29$  4.43$
  Q  0.6645  8.37$  3.68$  3.61$
  Q  -1.3290  7.97$  4.12$  4.25$
  Q  0.6645  19.6$  5.93$  12.41$
  Q  0.6645  19.56$  7.14$  13.41$
  Q  -1.3290  19.23$  6.54$  12.93$
  Q  0.6645  13.78$  2.41$  15.86$
  Q  0.6645  13.44$  2.31$  14.45$
  Q  -1.3290  13.97$  2.44$  15.08$
  Q  0.6645  9.51$  19.46$  15.31$
  Q  0.6645  8.21$  20.23$  15.92$
  Q  -1.3290  8.86$  19.65$  15.87$
  Q  0.6645  11.46$  13.39$  20.68$
  Q  0.6645  11.65$  13.09$  19.06$
  Q  -1.3290  11.44$  12.92$  19.93$
  Q  0.6645  7.18$  10.34$  1.59$
  Q  0.6645  5.64$  10.51$  1.77$
  Q  -1.3290  6.42$  10.79$  1.7$
  Q  0.6645  10.59$  6.24$  21.93$
  Q  0.6645  9.32$  6.88$  22.29$
  Q  -1.3290  9.94$  6.71$  21.77$
  Q  0.6645  20.29$  12.08$  6.56$
  Q  0.6645  20.61$  10.62$  6.54$
  Q  -1.3290  20.53$  11.36$  6.9$
  Q  0.6645  10.04$  17.04$  18.96$
  Q  0.6645  10.09$  15.99$  20.14$
  Q  -1.3290  9.87$  16.32$  19.39$
  Q  0.6645  15.71$  9.82$  16.95$
  Q  0.6645  15.47$  10.79$  18.01$
  Q  -1.3290  15.91$  10.46$  17.41$
  Q  0.6645  4.97$  8.41$  20.38$
  Q  0.6645  5.82$  8.36$  19.18$
  Q  -1.3290  5.09$  8.48$  19.56$
  Q  0.6645  13.14$  16.88$  18.85$
  Q  0.6645  13.69$  16.24$  20.1$
  Q  -1.3290  13.59$  16.86$  19.58$
  Q  0.6645  15.49$  18.48$  6.97$
  Q  0.6645  16.32$  19.7$  6.92$
  Q  -1.3290  16.19$  18.88$  6.9$
  Q  0.6645  7.73$  6.42$  15.91$
  Q  0.6645  8.39$  5.76$  14.69$
  Q  -1.3290  8.36$  6.27$  15.35$
  Q  0.6645  17.33$  6.91$  5.64$
  Q  0.6645  17.75$  5.5$  6.33$
  Q  -1.3290  17.81$  6.19$  5.8$
  Q  0.6645  6.36$  13.27$  6.56$
  Q  0.6645  6.52$  12.09$  7.56$
  Q  -1.3290  6.17$  12.53$  6.93$
  Q  0.6645  3.64$  12.22$  10.27$
  Q  0.6645  4.06$  12.98$  11.58$
  Q  -1.3290  3.99$  12.32$  11.04$
  Q  0.6645  5.01$  15.06$  17.73$
  Q  0.6645  3.83$  15.87$  17.98$
  Q  -1.3290  4.27$  15.18$  18.05$
  Q  0.6645  9.62$  17.62$  6.53$
  Q  0.6645  9.94$  16.36$  7.27$
  Q  -1.3290  9.45$  16.88$  6.83$
  Q  0.6645  -0.14$  10.88$  11$
  Q  0.6645  1.18$  10.75$  11.56$
  Q  -1.3290  0.59$  10.54$  11.06$
  Q  0.6645  21.05$  9.48$  14.58$
  Q  0.6645  21.88$  10.85$  14.63$
  Q  -1.3290  21.2$  10.34$  14.44$
  Q  0.6645  17.8$  11.37$  18.06$
  Q  0.6645  19.1$  11.68$  17.54$
  Q  -1.3290  18.59$  11.54$  18.15$
  Q  0.6645  15.95$  12.97$  5.73$
  Q  0.6645  17.46$  13.04$  5.77$
  Q  -1.3290  16.72$  12.67$  5.69$
  Q  0.6645  14.26$  13.57$  2.37$
  Q  0.6645  15.36$  14.61$  2.51$
  Q  -1.3290  14.93$  14.01$  2.09$
  Q  0.6645  4.86$  7.06$  12.53$
  Q  0.6645  4.66$  5.54$  12.21$
  Q  -1.3290  4.63$  6.38$  12.06$
  Q  0.6645  16.63$  2.96$  8.02$
  Q  0.6645  15.93$  2.26$  9.25$
  Q  -1.3290  16.59$  2.47$  8.72$
  Q  0.6645  13.23$  7.88$  20.82$
  Q  0.6645  14.12$  8.93$  21.72$
  Q  -1.3290  13.89$  8.16$  21.35$
  Q  0.6645  19.77$  11.61$  11.28$
  Q  0.6645  20.49$  11.27$  12.66$
  Q  -1.3290  20.13$  11.78$  12.03$
  Q  0.6645  2.37$  7.7$  12.91$
  Q  0.6645  1.95$  6.44$  13.76$
  Q  -1.3290  1.98$  7.26$  13.53$
  Q  0.6645  12.18$  20.64$  8.33$
  Q  0.6645  12.83$  21.46$  7.13$
  Q  -1.3290  12.78$  20.92$  7.8$
  Q  0.6645  17.4$  7.79$  17.9$
  Q  0.6645  17.21$  6.91$  19.15$
  Q  -1.3290  17.55$  7.15$  18.43$
  Q  0.6645  12.81$  1.46$  10.08$
  Q  0.6645  11.38$  1.72$  10.42$
  Q  -1.3290  12.1$  1.93$  10.09$
  Q  0.6645  14.54$  8.56$  15.68$
  Q  0.6645  15.84$  7.92$  15.04$
  Q  -1.3290  15.37$  8.47$  15.51$
  Q  0.6645  16.72$  7.75$  9.21$
  Q  0.6645  16.52$  7.65$  7.71$
  Q  -1.3290  16.59$  7.31$  8.49$
  Q  0.6645  7.71$  13.49$  4.34$
  Q  0.6645  7.49$  12.42$  3.22$
  Q  -1.3290  7.93$  12.87$  3.81$
  Q  0.6645  16.76$  12.05$  3.51$
  Q  0.6645  16.16$  12.43$  2.07$
  Q  -1.3290  16.64$  11.98$  2.66$
  Q  0.6645  12.68$  18.5$  3.81$
  Q  0.6645  13.76$  19.54$  3.81$
  Q  -1.3290  13.33$  18.88$  4.11$
  Q  0.6645  18.16$  14.73$  7.43$
  Q  0.6645  18.22$  15.68$  6.21$
  Q  -1.3290  17.87$  15.33$  6.88$
  Q  0.6645  19.51$  8.46$  2.85$
  Q  0.6645  19.72$  7.71$  1.52$
  Q  -1.3290  19.94$  8.2$  2.19$
  Q  0.6645  15.4$  10.38$  2.65$
  Q  0.6645  14.13$  10.13$  1.79$
  Q  -1.3290  14.71$  9.98$  2.43$
  Q  0.6645  4.37$  7.44$  18.1$
  Q  0.6645  3.5$  7.06$  16.89$
  Q  -1.3290  4.03$  6.91$  17.53$
  Q  0.6645  4.82$  11.62$  20.25$
  Q  0.6645  4.45$  10.42$  19.41$
  Q  -1.3290  4.29$  11.14$  19.81$
  Q  0.6645  9.21$  15.01$  3.69$
  Q  0.6645  10.29$  14.85$  4.8$
  Q  -1.3290  10.02$  14.92$  4.02$
  Q  0.6645  4.8$  8.77$  16.62$
  Q  0.6645  6.25$  9.04$  16.96$
  Q  -1.3290  5.54$  9.1$  16.5$
  Q  0.6645  2.24$  10.72$  13.87$
  Q  0.6645  3.1$  10.91$  12.65$
  Q  -1.3290  2.46$  11.11$  13.16$
  Q  0.6645  7.47$  18.56$  19.22$
  Q  0.6645  7.9$  17.19$  18.87$
  Q  -1.3290  7.41$  17.85$  18.81$
  Q  0.6645  7.21$  0.48$  14.58$
  Q  0.6645  7.05$  2.06$  14.26$
  Q  -1.3290  7.4$  1.27$  14.25$
  Q  0.6645  7.27$  0.78$  10.67$
  Q  0.6645  7.51$  1.22$  12.16$
  Q  -1.3290  7.57$  1.26$  11.31$
  Q  0.6645  2.38$  7.4$  7.55$
  Q  0.6645  1.3$  7.93$  6.63$
  Q  -1.3290  2$  7.46$  6.82$
  Q  0.6645  12.27$  8.13$  15.89$
  Q  0.6645  13.15$  6.82$  15.87$
  Q  -1.3290  12.9$  7.62$  16.15$
  Q  0.6645  1.52$  13.48$  9.14$
  Q  0.6645  1.19$  13.72$  10.7$
  Q  -1.3290  1.07$  13.77$  9.82$
  Q  0.6645  5.89$  8.05$  10.1$
  Q  0.6645  7.13$  8.74$  10.78$
  Q  -1.3290  6.34$  8.65$  10.44$
  Q  0.6645  19.7$  12.98$  4.75$
  Q  0.6645  19.96$  14.27$  5.59$
  Q  -1.3290  19.62$  13.5$  5.39$
  Q  0.6645  13.6$  6.36$  0.52$
  Q  0.6645  12.51$  5.85$  1.49$
  Q  -1.3290  13.07$  5.78$  0.82$
  Q  0.6645  2.43$  13.12$  7$
  Q  0.6645  2.31$  11.86$  7.84$
  Q  -1.3290  2.63$  12.58$  7.6$
  Q  0.6645  7.71$  16.07$  1.41$
  Q  0.6645  8.6$  14.76$  1.04$
  Q  -1.3290  8.12$  15.31$  1.53$
  Q  0.6645  3.18$  2.79$  9.11$
  Q  0.6645  4.3$  3.77$  9.49$
  Q  -1.3290  3.58$  3.32$  9.61$
  Q  0.6645  4.64$  17.61$  20.36$
  Q  0.6645  6.05$  17.47$  19.83$
  Q  -1.3290  5.47$  17.42$  20.43$
  Q  0.6645  9.54$  6.95$  3.87$
  Q  0.6645  8.53$  6.05$  4.73$
  Q  -1.3290  8.81$  6.77$  4.3$
*
