! NoMOPrint PrintBasis #MINIPRINT SMALLPRINT LARGEPRINT
! ALLPOP XYZFILE
#! BP86 3-21G   TightSCF
! ENGRAD
! B3LYP NormalPNO PModel #DecontractAux
#! VerySlowConv 
 %maxcore 5000
 %scf  maxiter   500  end 

%pal
    nprocs 32
end

%basis
    NewGTO O    # New basis for oxygen
        "aug-cc-pVTZ"
    end
    NewGTO C    # New basis for carbon
        "aug-cc-pVTZ"
    end
    NewGTO H    # New basis for hydrogen
        "cc-pVTZ"
    end
end

* xyz 0   1
  C  10.83  12.7  12.23  #1
  H  11.54  13.56  12.29  #2
  H  10.81  12.02  13.07  #3
  C  11.26  11.89  11.03  #4
  H  11.13  12.38  10.09  #5
  H  12.35  11.66  11.1  #6
  C  10.48  10.61  10.91  #7
  H  9.45  10.81  10.67  #8
  H  10.53  10.15  11.86  #9
  C  11.03  9.78  9.72  #10
  H  12.08  9.86  9.72  #11
  H  10.58  10.07  8.73  #12
  O  10.76  8.38  9.87  #13
  H  10.88  7.95  8.98  #14
  O  9.59  13.16  11.99  #15
  H  9.65  13.85  11.28  #16
  O  13.19  14.08  8.91  #17
  H  13.42  14.32  9.82  #18
  H  12.24  14.21  8.79  #19
  O  9.58  8.92  14.18  #20
  H  8.81  9.3  13.74  #21
  H  9.24  8.74  15.07  #22
  O  9.28  13.84  15.61  #23
  H  9.17  13.86  16.56  #24
  H  10.22  13.59  15.48  #25
  O  11.03  16.65  10.13  #26
  H  11.59  16.33  10.91  #27
  H  10.27  16.12  9.93  #28
  O  14.34  9.58  9.92  #29
  H  14.47  10.04  9.05  #30
  H  15.26  9.3  10.02  #31
  O  13.49  8.36  6.94  #32
  H  13.63  7.97  6.06  #33
  H  12.55  8.32  7.11  #34
  O  14.95  12.03  11.4  #35
  H  15.12  11.98  12.36  #36
  H  14.66  11.16  11.26  #37
  O  10.73  14  7.36  #38
  H  10.95  13.22  6.87  #39
  H  11.14  14.78  7.04  #40
  O  16.1  9.72  7.17  #41
  H  15.35  9.17  7.38  #42
  H  16.71  9.48  7.9  #43
  O  10.98  7.51  6.21  #44
  H  11.43  7.31  5.37  #45
  H  10.32  6.82  6.3  #46
  O  7.3  11.93  15.85  #47
  H  8.14  12.1  15.42  #48
  H  7.57  11.77  16.72  #49
  O  9.84  16.94  15.61  #50
  H  9.42  16.14  15.81  #51
  H  9.31  17.33  14.89  #52
  O  13.28  18.64  8.92  #53
  H  13.78  18  8.43  #54
  H  12.76  18.09  9.42  #55
  O  13.08  15.04  14.08  #56
  H  13.64  15.02  13.28  #57
  H  13.71  15.26  14.75  #58
  O  13.31  7.07  4.48  #59
  H  13.9  6.34  4.45  #60
  H  13.53  7.63  3.7  #61
  O  12.03  12.78  15.43  #62
  H  12.26  11.89  15.05  #63
  H  12.48  13.53  14.92  #64
  O  9.36  7.49  16.55  #65
  H  9.58  7.79  17.44  #66
  H  8.52  6.93  16.66  #67
  O  14.68  16.67  7.66  #68
  H  15.29  16.43  6.94  #69
  H  14.56  15.82  8.13  #70
  O  9.64  19.06  11.2  #71
  H  9.29  19.65  10.44  #72
  H  10.31  18.42  10.83  #73
  O  6.93  15.27  14.46  #74
  H  7.59  14.61  14.71  #75
  H  7.45  15.93  13.99  #76
  O  6.77  12.26  12.75  #77
  H  6.94  11.94  13.64  #78
  H  7.63  12.55  12.38  #79
  O  8.93  11.62  7.61  #80
  H  9.05  12.57  7.4  #81
  H  9.13  11.14  6.86  #82
  O  8.36  14.54  18.14  #83
  H  7.49  14.82  17.7  #84
  H  8.76  15.32  18.51  #85
  O  14.62  6.06  8.44  #86
  H  14.38  6.7  7.83  #87
  H  14.19  6.28  9.25  #88
  O  7.51  9.72  12.63  #89
  H  7.1  10.58  12.39  #90
  H  7.5  9.06  11.94  #91
  O  14.06  14.67  11.42  #92
  H  14.39  13.84  11.72  #93
  H  14.84  15.27  11.41  #94
  O  11.51  16.86  12.76  #95
  H  10.83  17.24  13.35  #96
  H  11.93  16.2  13.25  #97
  O  13  6.15  10.98  #98
  H  12.27  6.11  10.33  #99
  H  13.03  7.12  10.99  #100
  O  12.43  10.13  14.59  #101
  H  11.53  9.87  14.39  #102
  H  12.91  9.94  13.79  #103
  O  10.75  5.28  9.13  #104
  H  10.07  5.3  8.46  #105
  H  10.2  4.78  9.8  #106
  O  7.6  7.87  10.37  #107
  H  8.52  8.01  10.3  #108
  H  7.41  6.88  10.17  #109
  O  8.66  14.9  9.45  #110
  H  7.78  15.03  9.09  #111
  H  9.13  14.54  8.69  #112
  O  13.76  11.18  7.55  #113
  H  13.7  12.13  7.77  #114
  H  14.59  11.14  7.06  #115
  O  10.38  6.98  12.7  #116
  H  9.9  7.74  13.07  #117
  H  10.97  7.38  12.03  #118
  Q  0.6645  11.82$  2.1$  14.79$
  Q  0.6645  11.42$  3.6$  14.56$
  Q  -1.3290  11.81$  2.94$  14.96$
  Q  0.6645  13.33$  20.33$  7.59$
  Q  0.6645  13.79$  21.69$  8.15$
  Q  -1.3290  13.65$  21.12$  7.52$
  Q  0.6645  10.26$  8.85$  2.73$
  Q  0.6645  10.5$  7.46$  2.07$
  Q  -1.3290  10.15$  8.01$  2.66$
  Q  0.6645  9.86$  0.94$  6.94$
  Q  0.6645  10$  -0.59$  6.78$
  Q  -1.3290  9.65$  0.17$  6.62$
  Q  0.6645  4.25$  6.43$  8.4$
  Q  0.6645  3.54$  5.17$  7.8$
  Q  -1.3290  4.07$  5.84$  7.8$
  Q  0.6645  13.05$  9.24$  16.5$
  Q  0.6645  13.51$  9.34$  18.08$
  Q  -1.3290  13.01$  9.12$  17.38$
  Q  0.6645  2.47$  10.15$  14.63$
  Q  0.6645  2.94$  9.28$  13.42$
  Q  -1.3290  2.81$  9.45$  14.24$
  Q  0.6645  8.59$  17.63$  12.41$
  Q  0.6645  8.1$  18.41$  13.69$
  Q  -1.3290  8.37$  17.71$  13.26$
  Q  0.6645  17.56$  12.96$  7.02$
  Q  0.6645  16.31$  12.96$  6.17$
  Q  -1.3290  16.89$  13.31$  6.67$
  Q  0.6645  20.62$  12.82$  11.7$
  Q  0.6645  22.04$  12.18$  11.42$
  Q  -1.3290  21.17$  12.25$  11.38$
  Q  0.6645  5.66$  12.36$  15.46$
  Q  0.6645  4.29$  11.61$  15.9$
  Q  -1.3290  4.78$  12.3$  15.65$
  Q  0.6645  16.07$  13.47$  14.12$
  Q  0.6645  15.68$  12.13$  14.6$
  Q  -1.3290  15.63$  12.76$  14.11$
  Q  0.6645  18$  8.07$  9.33$
  Q  0.6645  18.34$  9.54$  9.29$
  Q  -1.3290  17.9$  8.86$  9.12$
  Q  0.6645  7.69$  1.61$  10.9$
  Q  0.6645  6.23$  1.86$  11.38$
  Q  -1.3290  7.05$  1.62$  11.46$
  Q  0.6645  15.14$  11.37$  4.76$
  Q  0.6645  14.4$  12.7$  4.44$
  Q  -1.3290  14.99$  12.18$  4.8$
  Q  0.6645  17.04$  3.22$  6.88$
  Q  0.6645  17.62$  2.93$  5.41$
  Q  -1.3290  17.24$  3.39$  6.05$
  Q  0.6645  7.85$  21.36$  6.62$
  Q  0.6645  6.73$  20.42$  6.72$
  Q  -1.3290  7.05$  21.13$  6.53$
  Q  0.6645  13.09$  4.35$  7.21$
  Q  0.6645  11.88$  4.27$  8.03$
  Q  -1.3290  12.35$  4.06$  7.41$
  Q  0.6645  2.2$  12.81$  12.41$
  Q  0.6645  2.83$  12.75$  11.08$
  Q  -1.3290  2.19$  12.83$  11.59$
  Q  0.6645  18.66$  4.48$  6.31$
  Q  0.6645  18.93$  5.28$  7.56$
  Q  -1.3290  19.13$  5.01$  6.79$
  Q  0.6645  19.79$  6.81$  11.9$
  Q  0.6645  19.67$  6.02$  13.31$
  Q  -1.3290  19.83$  6.69$  12.75$
  Q  0.6645  8.9$  17.25$  19.82$
  Q  0.6645  7.65$  16.95$  19.05$
  Q  -1.3290  8.22$  16.85$  19.68$
  Q  0.6645  17.76$  10.62$  1.16$
  Q  0.6645  16.81$  10.21$  2.35$
  Q  -1.3290  17.42$  10.69$  1.93$
  Q  0.6645  12.76$  20.33$  18.27$
  Q  0.6645  11.44$  21.14$  18.06$
  Q  -1.3290  12.1$  20.66$  17.84$
  Q  0.6645  7.02$  19.34$  15.63$
  Q  0.6645  5.53$  18.83$  15.28$
  Q  -1.3290  6.33$  19.15$  15.14$
  Q  0.6645  6.06$  6.33$  18.87$
  Q  0.6645  6.56$  7.66$  18.56$
  Q  -1.3290  6.46$  7$  19.05$
  Q  0.6645  2.61$  14.94$  16.82$
  Q  0.6645  1.75$  16.22$  16.99$
  Q  -1.3290  1.98$  15.48$  16.64$
  Q  0.6645  10.97$  12.13$  19.97$
  Q  0.6645  12.22$  12.92$  19.4$
  Q  -1.3290  11.79$  12.33$  19.86$
  Q  0.6645  18.49$  18.63$  12.22$
  Q  0.6645  19.53$  19.66$  12.76$
  Q  -1.3290  19.03$  18.96$  12.79$
  Q  0.6645  12.82$  9.56$  2.08$
  Q  0.6645  13.95$  8.83$  1.34$
  Q  -1.3290  13.46$  8.98$  2$
  Q  0.6645  9.45$  19.93$  15.8$
  Q  0.6645  9.13$  18.66$  16.67$
  Q  -1.3290  9.08$  19.48$  16.43$
  Q  0.6645  15.18$  15.8$  4.15$
  Q  0.6645  13.86$  15.01$  3.99$
  Q  -1.3290  14.51$  15.49$  3.73$
  Q  0.6645  8.45$  4.45$  2.46$
  Q  0.6645  7.61$  5.63$  1.96$
  Q  -1.3290  7.93$  4.86$  1.91$
  Q  0.6645  4.91$  14.07$  12.16$
  Q  0.6645  5.35$  15.03$  13.3$
  Q  -1.3290  4.89$  14.78$  12.6$
  Q  0.6645  19.71$  11.47$  10.27$
  Q  0.6645  18.35$  11.77$  9.73$
  Q  -1.3290  18.92$  11.28$  10.09$
  Q  0.6645  11.95$  5.47$  18.04$
  Q  0.6645  12.04$  6.62$  17.08$
  Q  -1.3290  12.35$  6.03$  17.62$
  Q  0.6645  3.38$  14.98$  8.58$
  Q  0.6645  1.88$  15.04$  8.94$
  Q  -1.3290  2.56$  14.78$  8.51$
  Q  0.6645  13.01$  16.64$  3.49$
  Q  0.6645  12.05$  16.95$  4.63$
  Q  -1.3290  12.29$  16.91$  3.84$
  Q  0.6645  7.54$  5.4$  15.85$
  Q  0.6645  6.41$  5.23$  16.9$
  Q  -1.3290  7.12$  5.57$  16.59$
  Q  0.6645  13.03$  16.73$  6.78$
  Q  0.6645  11.78$  17.58$  6.91$
  Q  -1.3290  12.21$  16.9$  6.68$
  Q  0.6645  19.23$  12.64$  13.89$
  Q  0.6645  19.76$  13.96$  13.21$
  Q  -1.3290  19.63$  13.37$  13.85$
  Q  0.6645  8.82$  13$  3.73$
  Q  0.6645  9.3$  11.61$  3.19$
  Q  -1.3290  8.79$  12.26$  3.22$
  Q  0.6645  18.28$  11.22$  17.33$
  Q  0.6645  16.78$  11.34$  16.72$
  Q  -1.3290  17.63$  11.39$  16.75$
  Q  0.6645  5.75$  18.36$  11.9$
  Q  0.6645  5.7$  16.86$  11.8$
  Q  -1.3290  5.89$  17.63$  11.52$
  Q  0.6645  16.74$  13.09$  17.61$
  Q  0.6645  16.12$  13.18$  18.91$
  Q  -1.3290  16.4$  13.51$  18.24$
  Q  0.6645  0.88$  9.33$  11.61$
  Q  0.6645  -0.41$  9.89$  10.93$
  Q  -1.3290  0.06$  9.35$  11.39$
  Q  0.6645  6.09$  16.45$  16.35$
  Q  0.6645  5.48$  15.78$  17.51$
  Q  -1.3290  6.07$  16.23$  17.15$
  Q  0.6645  20.91$  10.39$  6.31$
  Q  0.6645  19.66$  9.58$  5.61$
  Q  -1.3290  20.2$  9.87$  6.25$
  Q  0.6645  3.46$  7.35$  6.59$
  Q  0.6645  3.46$  8.82$  6.19$
  Q  -1.3290  3.19$  8.03$  6.16$
  Q  0.6645  11.37$  17.28$  16.32$
  Q  0.6645  11.91$  18.6$  16.76$
  Q  -1.3290  11.95$  17.76$  16.67$
  Q  0.6645  11.4$  9.4$  18.31$
  Q  0.6645  10.5$  9.17$  19.49$
  Q  -1.3290  10.68$  9.25$  18.68$
  Q  0.6645  5.24$  16.26$  4.79$
  Q  0.6645  4$  15.23$  4.85$
  Q  -1.3290  4.42$  15.96$  4.74$
  Q  0.6645  10.52$  1.05$  2.95$
  Q  0.6645  10.38$  0.68$  4.44$
  Q  -1.3290  10.33$  1.19$  3.76$
  Q  0.6645  8.31$  5.69$  6.17$
  Q  0.6645  9.46$  5.1$  5.59$
  Q  -1.3290  9.09$  5.45$  6.22$
  Q  0.6645  6.39$  13.23$  8.16$
  Q  0.6645  7.44$  12.14$  8.56$
  Q  -1.3290  6.71$  12.55$  8.63$
  Q  0.6645  4.59$  8.85$  14.62$
  Q  0.6645  6.2$  8.76$  14.27$
  Q  -1.3290  5.44$  8.7$  14.76$
  Q  0.6645  6.1$  10.8$  4.26$
  Q  0.6645  6.98$  11.58$  3.23$
  Q  -1.3290  6.26$  11.23$  3.55$
  Q  0.6645  17.48$  14.7$  9.7$
  Q  0.6645  18.45$  15.22$  8.68$
  Q  -1.3290  18.1$  15.18$  9.43$
  Q  0.6645  5.8$  20.13$  13.36$
  Q  0.6645  4.49$  20.6$  12.63$
  Q  -1.3290  5.26$  20.19$  12.69$
  Q  0.6645  17.41$  6.59$  2.74$
  Q  0.6645  17.33$  6.81$  4.27$
  Q  -1.3290  17.69$  6.59$  3.56$
  Q  0.6645  5.18$  12.49$  10.04$
  Q  0.6645  5.47$  12.09$  11.47$
  Q  -1.3290  4.99$  12.23$  10.82$
  Q  0.6645  10.62$  5.49$  13.5$
  Q  0.6645  9.49$  4.54$  14.05$
  Q  -1.3290  10.27$  4.74$  13.8$
  Q  0.6645  12.19$  19.82$  14.16$
  Q  0.6645  12.58$  18.49$  14.83$
  Q  -1.3290  12.73$  19.25$  14.44$
  Q  0.6645  5.86$  0.93$  7.32$
  Q  0.6645  4.76$  2.14$  7.31$
  Q  -1.3290  5.41$  1.63$  7.59$
  Q  0.6645  10.98$  1.37$  13.12$
  Q  0.6645  12.26$  0.62$  13.16$
  Q  -1.3290  11.47$  0.73$  13.35$
  Q  0.6645  17.65$  18.99$  14.35$
  Q  0.6645  17.02$  18.39$  15.5$
  Q  -1.3290  17.01$  18.91$  14.88$
  Q  0.6645  14.3$  12.81$  1.02$
  Q  0.6645  15.76$  12.9$  1.47$
  Q  -1.3290  15.14$  12.79$  0.91$
  Q  0.6645  17.39$  16.26$  15.69$
  Q  0.6645  17.39$  16.4$  17.15$
  Q  -1.3290  17.26$  16.68$  16.38$
  Q  0.6645  15.79$  6.58$  18.06$
  Q  0.6645  14.41$  6.54$  17.27$
  Q  -1.3290  15.24$  6.67$  17.38$
  Q  0.6645  8.13$  5.16$  10.8$
  Q  0.6645  9.33$  5.82$  11.57$
  Q  -1.3290  8.89$  5.16$  11.21$
  Q  0.6645  3.66$  12.88$  4.92$
  Q  0.6645  3.7$  12.84$  6.44$
  Q  -1.3290  3.72$  13.21$  5.69$
  Q  0.6645  18.34$  2.79$  8.76$
  Q  0.6645  17.15$  1.7$  8.9$
  Q  -1.3290  17.52$  2.45$  8.73$
  Q  0.6645  16.04$  17.23$  11.89$
  Q  0.6645  16.94$  16.42$  11.13$
  Q  -1.3290  16.36$  16.48$  11.66$
  Q  0.6645  14.23$  2.05$  3.55$
  Q  0.6645  14.47$  0.58$  3.87$
  Q  -1.3290  14.66$  1.31$  3.54$
  Q  0.6645  12.45$  2.2$  6.67$
  Q  0.6645  12.6$  0.63$  6.61$
  Q  -1.3290  12.25$  1.41$  6.44$
  Q  0.6645  2.74$  11.51$  2.7$
  Q  0.6645  4.12$  11.3$  3.53$
  Q  -1.3290  3.42$  11.72$  3.18$
  Q  0.6645  6.42$  15.28$  6.57$
  Q  0.6645  6.04$  13.82$  6.21$
  Q  -1.3290  6.49$  14.43$  6.58$
  Q  0.6645  20.69$  14.56$  8.45$
  Q  0.6645  20.84$  13.62$  9.68$
  Q  -1.3290  20.95$  13.84$  8.87$
  Q  0.6645  17.33$  15.38$  13.34$
  Q  0.6645  18.2$  14.61$  14.27$
  Q  -1.3290  17.51$  15.02$  14.07$
  Q  0.6645  12.36$  2.46$  4.56$
  Q  0.6645  12.51$  3.1$  3.2$
  Q  -1.3290  12.72$  2.95$  3.97$
  Q  0.6645  11.28$  15.58$  1.18$
  Q  0.6645  11.43$  16.04$  2.6$
  Q  -1.3290  11.16$  15.5$  2$
  Q  0.6645  12.95$  2.04$  8.63$
  Q  0.6645  13.89$  2.31$  9.75$
  Q  -1.3290  13.58$  1.85$  9.14$
  Q  0.6645  12.69$  16.82$  21.67$
  Q  0.6645  11.66$  15.87$  20.77$
  Q  -1.3290  12.3$  16.05$  21.38$
  Q  0.6645  17.97$  19.35$  10.2$
  Q  0.6645  18.46$  17.96$  9.79$
  Q  -1.3290  18.11$  18.53$  10.29$
  Q  0.6645  8.39$  7.41$  3.46$
  Q  0.6645  7.02$  7.75$  2.96$
  Q  -1.3290  7.59$  7.31$  3.34$
  Q  0.6645  6.94$  9.63$  20.97$
  Q  0.6645  7.24$  8.22$  20.38$
  Q  -1.3290  7.32$  8.85$  20.95$
  Q  0.6645  2.5$  18.69$  6.56$
  Q  0.6645  3.16$  17.3$  6.16$
  Q  -1.3290  2.9$  17.93$  6.69$
  Q  0.6645  6.5$  8.78$  1.06$
  Q  0.6645  6.2$  9.81$  2.1$
  Q  -1.3290  6.1$  9.1$  1.73$
  Q  0.6645  3$  12.52$  14.54$
  Q  0.6645  1.53$  12.81$  14.8$
  Q  -1.3290  2.19$  12.46$  14.4$
  Q  0.6645  16.89$  15.31$  5.81$
  Q  0.6645  17.1$  16.83$  5.52$
  Q  -1.3290  16.72$  16.07$  5.47$
  Q  0.6645  1.88$  11.43$  7.56$
  Q  0.6645  2.56$  12.55$  8.45$
  Q  -1.3290  2.48$  11.8$  8.06$
  Q  0.6645  8.39$  4.9$  17.88$
  Q  0.6645  8.97$  4.8$  19.23$
  Q  -1.3290  8.85$  4.52$  18.44$
  Q  0.6645  15.94$  8.96$  4.85$
  Q  0.6645  15.02$  9.12$  3.55$
  Q  -1.3290  15.7$  9.24$  4.07$
  Q  0.6645  9.01$  10.55$  18.14$
  Q  0.6645  8.48$  11.76$  18.95$
  Q  -1.3290  8.45$  11.15$  18.34$
  Q  0.6645  8.38$  14.71$  5.5$
  Q  0.6645  8.57$  15.1$  3.96$
  Q  -1.3290  8.65$  14.62$  4.67$
  Q  0.6645  3.74$  13.79$  18.39$
  Q  0.6645  4.62$  13.65$  17.11$
  Q  -1.3290  4.29$  14.05$  17.79$
  Q  0.6645  11.29$  5.73$  0.3$
  Q  0.6645  9.77$  5.95$  -0.02$
  Q  -1.3290  10.58$  6.18$  0.2$
  Q  0.6645  2.66$  8.15$  8.59$
  Q  0.6645  4.04$  8.89$  8.78$
  Q  -1.3290  3.48$  8.25$  8.84$
  Q  0.6645  5.49$  19.24$  8.43$
  Q  0.6645  4.66$  18.96$  7.25$
  Q  -1.3290  5.37$  18.93$  7.69$
  Q  0.6645  12.79$  13.08$  17.43$
  Q  0.6645  13.97$  13.96$  17.81$
  Q  -1.3290  13.24$  13.59$  17.93$
  Q  0.6645  13.58$  3.86$  15.16$
  Q  0.6645  14.93$  3.51$  15.49$
  Q  -1.3290  14.35$  4.06$  15.29$
  Q  0.6645  2.94$  9.9$  17.43$
  Q  0.6645  4.48$  10.01$  17.59$
  Q  -1.3290  3.72$  10.3$  17.44$
  Q  0.6645  16.38$  13.14$  3.54$
  Q  0.6645  17.55$  12.69$  2.69$
  Q  -1.3290  16.95$  13.24$  2.96$
  Q  0.6645  14.79$  8.59$  13.95$
  Q  0.6645  15.24$  9.35$  12.63$
  Q  -1.3290  14.68$  8.92$  13.14$
  Q  0.6645  7.73$  12.83$  1.5$
  Q  0.6645  6.96$  13.86$  0.66$
  Q  -1.3290  7.23$  13.12$  0.84$
  Q  0.6645  9.31$  15.99$  2.26$
  Q  0.6645  7.76$  16.19$  1.87$
  Q  -1.3290  8.47$  16.18$  2.38$
  Q  0.6645  7$  2.99$  7.75$
  Q  0.6645  8.28$  3.78$  7.31$
  Q  -1.3290  7.76$  3.36$  7.83$
  Q  0.6645  10.39$  19.09$  19.12$
  Q  0.6645  11.2$  18.51$  20.43$
  Q  -1.3290  10.6$  18.54$  19.79$
  Q  0.6645  4.49$  3.11$  10.74$
  Q  0.6645  4.77$  2.14$  9.45$
  Q  -1.3290  4.62$  2.37$  10.29$
  Q  0.6645  14.82$  5.36$  13.84$
  Q  0.6645  15.15$  6.63$  12.87$
  Q  -1.3290  15.29$  5.85$  13.29$
  Q  0.6645  12.61$  3.61$  0.8$
  Q  0.6645  11.34$  2.83$  1.06$
  Q  -1.3290  11.85$  3.49$  1.09$
  Q  0.6645  10.5$  4.62$  3.8$
  Q  0.6645  9.81$  3.21$  3.87$
  Q  -1.3290  9.83$  4.08$  3.82$
  Q  0.6645  16.59$  5.71$  8.95$
  Q  0.6645  17.84$  5.35$  9.56$
  Q  -1.3290  17.39$  5.76$  9.01$
  Q  0.6645  13.49$  2.96$  12.18$
  Q  0.6645  13.72$  4.38$  11.58$
  Q  -1.3290  13.64$  3.52$  11.56$
  Q  0.6645  3.29$  5.13$  10.5$
  Q  0.6645  3.95$  4.86$  11.78$
  Q  -1.3290  3.87$  4.84$  10.98$
  Q  0.6645  11.43$  13.86$  3.6$
  Q  0.6645  11.92$  12.94$  4.66$
  Q  -1.3290  12$  13.48$  4.02$
  Q  0.6645  14.47$  0.55$  13.28$
  Q  0.6645  14.2$  0.4$  11.7$
  Q  -1.3290  14.08$  0.67$  12.5$
  Q  0.6645  15.54$  15.9$  19.47$
  Q  0.6645  15.14$  16.28$  18.14$
  Q  -1.3290  15.39$  16.46$  18.89$
  Q  0.6645  9.71$  9.23$  5.21$
  Q  0.6645  8.34$  9.72$  4.91$
  Q  -1.3290  9.15$  9.82$  5.12$
  Q  0.6645  8.52$  12.96$  21.12$
  Q  0.6645  8.94$  13.57$  19.72$
  Q  -1.3290  8.93$  13.01$  20.37$
  Q  0.6645  3.32$  17.96$  16.41$
  Q  0.6645  3.6$  17.19$  15.08$
  Q  -1.3290  3.72$  17.8$  15.65$
  Q  0.6645  11.37$  2.81$  11.69$
  Q  0.6645  10$  3.32$  12.04$
  Q  -1.3290  10.57$  2.73$  11.82$
  Q  0.6645  20.07$  12.69$  7.84$
  Q  0.6645  19.42$  11.24$  7.52$
  Q  -1.3290  19.58$  12.1$  7.41$
  Q  0.6645  5.59$  20.66$  10.74$
  Q  0.6645  5.42$  21.59$  9.41$
  Q  -1.3290  5.61$  20.87$  9.88$
  Q  0.6645  19.36$  12.42$  5.49$
  Q  0.6645  18.4$  13.3$  4.54$
  Q  -1.3290  19.09$  12.83$  4.75$
  Q  0.6645  6.54$  10.27$  8.72$
  Q  0.6645  6.41$  8.92$  9.24$
  Q  -1.3290  6.12$  9.58$  8.85$
  Q  0.6645  6.49$  7.99$  5.92$
  Q  0.6645  6.42$  8.85$  7.15$
  Q  -1.3290  6.47$  8.73$  6.29$
  Q  0.6645  1.95$  7.63$  14.14$
  Q  0.6645  1.31$  6.56$  13.35$
  Q  -1.3290  1.62$  6.86$  14.07$
  Q  0.6645  13.24$  11.18$  19.43$
  Q  0.6645  14.8$  10.91$  19.74$
  Q  -1.3290  14.05$  10.9$  19.29$
  Q  0.6645  10.05$  19.07$  7.86$
  Q  0.6645  10.04$  18.75$  6.41$
  Q  -1.3290  10.4$  19$  7.12$
  Q  0.6645  16.8$  6.21$  14.42$
  Q  0.6645  17.8$  7.22$  13.74$
  Q  -1.3290  17.41$  6.81$  14.4$
  Q  0.6645  10.85$  10.09$  1.09$
  Q  0.6645  11.49$  11.4$  1.49$
  Q  -1.3290  11.21$  10.62$  1.62$
  Q  0.6645  14.1$  19.88$  10.12$
  Q  0.6645  15.02$  19.77$  11.33$
  Q  -1.3290  14.72$  20.11$  10.61$
  Q  0.6645  15.09$  16.71$  16.34$
  Q  0.6645  13.56$  16.56$  16.58$
  Q  -1.3290  14.38$  16.3$  16.45$
  Q  0.6645  16.69$  4.36$  12.38$
  Q  0.6645  17.03$  2.98$  11.87$
  Q  -1.3290  17.12$  3.81$  11.91$
  Q  0.6645  12.13$  15.41$  18.56$
  Q  0.6645  11.66$  16.81$  18.63$
  Q  -1.3290  11.58$  16$  18.76$
  Q  0.6645  5.82$  4.33$  3.72$
  Q  0.6645  4.49$  5.01$  3.15$
  Q  -1.3290  4.97$  4.49$  3.63$
  Q  0.6645  8.55$  2$  8.76$
  Q  0.6645  9.54$  1.76$  9.95$
  Q  -1.3290  9.11$  1.55$  9.24$
  Q  0.6645  1.5$  16.25$  12.23$
  Q  0.6645  1.46$  14.86$  11.46$
  Q  -1.3290  1.47$  15.73$  11.52$
  Q  0.6645  19.42$  15.05$  10.91$
  Q  0.6645  20.44$  15.47$  12.09$
  Q  -1.3290  19.97$  14.91$  11.58$
  Q  0.6645  12.37$  11.09$  5.98$
  Q  0.6645  10.89$  11.13$  5.44$
  Q  -1.3290  11.61$  11.45$  5.75$
  Q  0.6645  5.62$  5.91$  6.17$
  Q  0.6645  6.29$  6.07$  4.9$
  Q  -1.3290  6.28$  5.97$  5.71$
  Q  0.6645  15.38$  18.77$  13.68$
  Q  0.6645  14.02$  18.76$  12.98$
  Q  -1.3290  14.83$  18.59$  13.02$
  Q  0.6645  3.87$  5.68$  13.76$
  Q  0.6645  5.06$  6.54$  13.99$
  Q  -1.3290  4.58$  6.03$  13.54$
  Q  0.6645  17.47$  10.1$  11.17$
  Q  0.6645  17.48$  10.03$  12.65$
  Q  -1.3290  17.24$  9.78$  11.9$
  Q  0.6645  15.89$  12.79$  10.01$
  Q  0.6645  16.37$  13.24$  8.5$
  Q  -1.3290  16.45$  13.06$  9.36$
  Q  0.6645  5.35$  16.41$  9.87$
  Q  0.6645  5.01$  16.48$  8.43$
  Q  -1.3290  5.21$  16.07$  9.15$
  Q  0.6645  6.2$  9.19$  16.68$
  Q  0.6645  7.04$  9.74$  17.89$
  Q  -1.3290  6.42$  9.29$  17.52$
  Q  0.6645  7.42$  3.55$  14.19$
  Q  0.6645  7.78$  4.58$  13.15$
  Q  -1.3290  7.69$  4.31$  13.95$
  Q  0.6645  2.89$  8.79$  10.83$
  Q  0.6645  2.91$  10.17$  11.64$
  Q  -1.3290  2.77$  9.33$  11.5$
  Q  0.6645  6.58$  4.85$  9.05$
  Q  0.6645  5.65$  5.27$  10.28$
  Q  -1.3290  6.37$  5.18$  9.82$
  Q  0.6645  3.31$  15.45$  13.64$
  Q  0.6645  2.18$  15.54$  14.65$
  Q  -1.3290  2.7$  15.82$  14.05$
  Q  0.6645  9.76$  19.9$  12.92$
  Q  0.6645  10.48$  20.89$  13.68$
  Q  -1.3290  9.97$  20.26$  13.61$
  Q  0.6645  12.41$  12.91$  -0.15$
  Q  0.6645  12.12$  13.77$  1.12$
  Q  -1.3290  12.36$  13.09$  0.66$
  Q  0.6645  15.97$  6.15$  6.06$
  Q  0.6645  16.74$  7.36$  6.7$
  Q  -1.3290  16.27$  6.94$  6.11$
  Q  0.6645  5.09$  10.04$  6.23$
  Q  0.6645  3.76$  10.63$  6.83$
  Q  -1.3290  4.35$  10.49$  6.22$
  Q  0.6645  14.41$  11.4$  17.31$
  Q  0.6645  14.74$  10.52$  16.15$
  Q  -1.3290  14.79$  11.22$  16.59$
  Q  0.6645  16.4$  8.54$  15.51$
  Q  0.6645  15.1$  8.28$  16.12$
  Q  -1.3290  15.59$  8.65$  15.62$
  Q  0.6645  7.73$  20.54$  9.35$
  Q  0.6645  8.94$  21.35$  9.06$
  Q  -1.3290  8.5$  20.64$  9.13$
  Q  0.6645  8.74$  18.95$  3.92$
  Q  0.6645  8.84$  17.44$  3.68$
  Q  -1.3290  8.81$  18.15$  4.17$
  Q  0.6645  5.63$  18.7$  19.42$
  Q  0.6645  6.15$  18.06$  18.08$
  Q  -1.3290  6.05$  18.67$  18.65$
  Q  0.6645  15.31$  4.11$  5.48$
  Q  0.6645  13.9$  4.21$  4.93$
  Q  -1.3290  14.59$  4.51$  5.3$
  Q  0.6645  18.08$  11.08$  15.06$
  Q  0.6645  19.25$  10.4$  14.32$
  Q  -1.3290  18.51$  10.83$  14.36$
  Q  0.6645  10.3$  8.2$  21.71$
  Q  0.6645  9.2$  9.19$  21.34$
  Q  -1.3290  10$  8.96$  21.58$
  Q  0.6645  8.15$  1.64$  15.02$
  Q  0.6645  7.54$  1.41$  13.44$
  Q  -1.3290  7.55$  1.69$  14.31$
  Q  0.6645  7.52$  17.38$  5.42$
  Q  0.6645  6.57$  17.64$  6.51$
  Q  -1.3290  6.91$  17.2$  5.95$
*
