! NoMOPrint PrintBasis #MINIPRINT SMALLPRINT LARGEPRINT
! ALLPOP XYZFILE
#! BP86 3-21G   TightSCF
! ENGRAD
! B3LYP NormalPNO PModel #DecontractAux
#! VerySlowConv 
 %maxcore 5000
 %scf  maxiter   500  end 

%pal
    nprocs 32
end

%basis
    NewGTO O    # New basis for oxygen
        "aug-cc-pVTZ"
    end
    NewGTO C    # New basis for carbon
        "aug-cc-pVTZ"
    end
    NewGTO H    # New basis for hydrogen
        "cc-pVTZ"
    end
end

* xyz 0   1
  C  10.54  11.8  9.73  #1
  H  9.47  12.11  9.91  #2
  H  10.57  10.78  9.32  #3
  C  11.22  11.85  11.1  #4
  H  12.32  11.68  11.13  #5
  H  11.13  12.93  11.39  #6
  C  10.56  10.98  12.11  #7
  H  9.46  11.12  12.04  #8
  H  10.9  11.28  13.13  #9
  C  11.05  9.55  12.02  #10
  H  12.14  9.55  12.28  #11
  H  10.88  9.04  11.08  #12
  O  10.3  8.86  13.03  #13
  H  10.66  9.25  13.87  #14
  O  11.17  12.78  8.82  #15
  H  10.74  12.63  7.91  #16
  O  11.39  7.83  16.37  #17
  H  11.6  7.55  17.26  #18
  H  11.33  7.07  15.8  #19
  O  9.49  8.86  7.88  #20
  H  8.76  8.65  8.5  #21
  H  9.2  9.54  7.3  #22
  O  8.44  7.05  12.22  #23
  H  9.07  6.43  11.88  #24
  H  9.09  7.66  12.6  #25
  O  13.77  9.21  11.02  #26
  H  14.49  8.82  10.47  #27
  H  14.15  9.4  11.9  #28
  O  12.56  11.13  5.89  #29
  H  12.7  11.05  6.86  #30
  H  12.21  10.23  5.6  #31
  O  12.33  9.39  8.69  #32
  H  12.58  9.29  9.63  #33
  H  11.42  9.15  8.62  #34
  O  10.83  7.51  5.96  #35
  H  10.12  7.76  6.61  #36
  H  10.56  6.74  5.44  #37
  O  10.29  15.72  11.59  #38
  H  10.28  16.63  11.91  #39
  H  9.59  15.29  12.1  #40
  O  12.96  6.53  19.15  #41
  H  13.16  5.59  18.89  #42
  H  12.46  6.49  19.99  #43
  O  11.66  10.22  15.09  #44
  H  11.53  9.37  15.52  #45
  H  10.88  10.8  15.3  #46
  O  10.44  5.78  10.65  #47
  H  11.35  6.06  10.65  #48
  H  10.47  4.83  10.64  #49
  O  16.79  9.89  10.44  #50
  H  17.36  9.09  10.65  #51
  H  16.64  10.16  11.35  #52
  O  15.43  9.32  13.23  #53
  H  14.9  9.11  13.93  #54
  H  16.14  9.73  13.68  #55
  O  7.57  8.09  9.78  #56
  H  7.98  7.64  10.55  #57
  H  6.65  7.79  9.69  #58
  O  10.74  15.37  8.92  #59
  H  10.48  15.26  9.81  #60
  H  11.03  14.44  8.73  #61
  O  13.96  12.84  8.74  #62
  H  12.99  12.74  8.92  #63
  H  14.39  12.8  9.6  #64
  O  13.28  6.21  10.8  #65
  H  14.11  6.69  10.79  #66
  H  13.22  5.57  11.52  #67
  O  15.04  8.83  8.46  #68
  H  15.66  9.5  8.81  #69
  H  14.02  9.02  8.46  #70
  O  16.3  6.68  9.33  #71
  H  17.18  6.48  9.63  #72
  H  16.05  7.61  9.25  #73
  O  14.12  7.97  15.34  #74
  H  14.55  8.07  16.18  #75
  H  13.23  8.04  15.53  #76
  O  9.89  11.67  6.45  #77
  H  9.32  12.33  6.06  #78
  H  10.71  11.56  5.91  #79
  O  11.62  9.23  4.1  #80
  H  11.28  8.54  4.72  #81
  H  11.44  8.76  3.27  #82
  O  6.37  9.05  12.79  #83
  H  5.46  9.15  12.48  #84
  H  6.95  8.6  12.09  #85
  O  15.45  11.15  4.88  #86
  H  15.71  11.82  4.22  #87
  H  14.49  11.47  5.04  #88
  O  10.68  5.77  14.62  #89
  H  9.82  5.38  14.67  #90
  H  11.15  5.26  13.97  #91
  O  7.7  13.02  12.68  #92
  H  7.52  13.71  12.01  #93
  H  8.38  13.29  13.34  #94
  O  11.95  14.07  4.9  #95
  H  11.34  13.83  4.14  #96
  H  12.26  13.19  5.21  #97
  O  13.84  13.94  12.76  #98
  H  12.94  13.99  13.17  #99
  H  14.09  14.89  12.7  #100
  O  8.49  8.08  16.43  #101
  H  9.37  8.37  16.11  #102
  H  7.92  8.76  16  #103
  Q  0.6645  0.15$  13.96$  8.54$
  Q  0.6645  1.72$  14.02$  8.04$
  Q  -1.3290  0.9$  13.69$  8.14$
  Q  0.6645  2.32$  7.55$  15.1$
  Q  0.6645  1.52$  8.61$  14.7$
  Q  -1.3290  2.15$  8.33$  15.13$
  Q  0.6645  14.76$  14.69$  8.9$
  Q  0.6645  14.39$  16.14$  9.15$
  Q  -1.3290  14.75$  15.5$  8.74$
  Q  0.6645  6.52$  13.76$  4.3$
  Q  0.6645  5.26$  14.75$  4.17$
  Q  -1.3290  5.71$  14.01$  4.05$
  Q  0.6645  12.34$  3.77$  17.8$
  Q  0.6645  13.73$  4.15$  17.24$
  Q  -1.3290  13.16$  4.04$  17.84$
  Q  0.6645  14.62$  16.7$  1.6$
  Q  0.6645  14.46$  16.19$  3.03$
  Q  -1.3290  14.33$  16.21$  2.18$
  Q  0.6645  4.05$  11.39$  13.48$
  Q  0.6645  3$  10.86$  14.51$
  Q  -1.3290  3.7$  11.26$  14.24$
  Q  0.6645  9.28$  6.41$  19.69$
  Q  0.6645  8.85$  7.72$  18.95$
  Q  -1.3290  9.18$  7.25$  19.57$
  Q  0.6645  15.71$  13.82$  15.66$
  Q  0.6645  15.08$  13.87$  14.25$
  Q  -1.3290  15.72$  13.89$  14.82$
  Q  0.6645  2.19$  7.93$  7.5$
  Q  0.6645  3.68$  7.97$  7.15$
  Q  -1.3290  2.98$  8.16$  7.59$
  Q  0.6645  7.8$  15.72$  17.71$
  Q  0.6645  8.5$  16.2$  16.5$
  Q  -1.3290  8.47$  15.83$  17.25$
  Q  0.6645  4.95$  15.61$  13.8$
  Q  0.6645  6.31$  16.19$  13.49$
  Q  -1.3290  5.48$  16.17$  13.42$
  Q  0.6645  16.03$  11.43$  1.62$
  Q  0.6645  15.61$  9.88$  2.12$
  Q  -1.3290  16.15$  10.57$  1.84$
  Q  0.6645  14.75$  1.44$  11.25$
  Q  0.6645  15.5$  1.98$  12.42$
  Q  -1.3290  15.08$  2.03$  11.71$
  Q  0.6645  12.48$  13.76$  19.22$
  Q  0.6645  11.16$  13.14$  19.09$
  Q  -1.3290  11.81$  13.53$  18.8$
  Q  0.6645  4.16$  8.45$  16.23$
  Q  0.6645  5.18$  7.48$  15.83$
  Q  -1.3290  4.83$  8$  16.37$
  Q  0.6645  6.46$  18.68$  16.32$
  Q  0.6645  7.72$  18.27$  15.65$
  Q  -1.3290  7.28$  18.68$  16.2$
  Q  0.6645  13.36$  9.26$  0.77$
  Q  0.6645  13.33$  9.76$  -0.6$
  Q  -1.3290  13.28$  9.85$  0.21$
  Q  0.6645  16.42$  14.96$  17.44$
  Q  0.6645  14.92$  15.12$  16.95$
  Q  -1.3290  15.56$  14.8$  17.42$
  Q  0.6645  15.06$  17.01$  5.42$
  Q  0.6645  13.64$  16.36$  5.49$
  Q  -1.3290  14.31$  16.76$  5.13$
  Q  0.6645  9.3$  21$  16.27$
  Q  0.6645  10.22$  19.78$  16.15$
  Q  -1.3290  9.85$  20.5$  15.87$
  Q  0.6645  3.74$  15.62$  10.84$
  Q  0.6645  4.55$  16.54$  11.76$
  Q  -1.3290  4.11$  16.33$  11.07$
  Q  0.6645  15.58$  17.58$  15.41$
  Q  0.6645  14.59$  18.62$  16.24$
  Q  -1.3290  14.82$  17.95$  15.64$
  Q  0.6645  11.91$  18.65$  8.09$
  Q  0.6645  10.97$  19.48$  7.23$
  Q  -1.3290  11.71$  19.19$  7.48$
  Q  0.6645  10.64$  2.04$  11.92$
  Q  0.6645  11.45$  1.26$  13.03$
  Q  -1.3290  10.98$  1.9$  12.71$
  Q  0.6645  16.41$  7.68$  13.42$
  Q  0.6645  16.79$  6.22$  12.92$
  Q  -1.3290  16.92$  6.99$  13.26$
  Q  0.6645  16.05$  9.53$  5.32$
  Q  0.6645  15.71$  8.95$  6.64$
  Q  -1.3290  16.09$  8.94$  5.89$
  Q  0.6645  4.45$  8.84$  10.32$
  Q  0.6645  3.5$  9.91$  10.63$
  Q  -1.3290  4.28$  9.63$  10.5$
  Q  0.6645  10.35$  2.06$  15.9$
  Q  0.6645  11.37$  1.62$  17.07$
  Q  -1.3290  10.98$  2.16$  16.52$
  Q  0.6645  17.21$  19.83$  6.81$
  Q  0.6645  17.06$  18.61$  7.77$
  Q  -1.3290  16.91$  19.39$  7.51$
  Q  0.6645  14.31$  2.46$  15.32$
  Q  0.6645  12.7$  2.48$  15.74$
  Q  -1.3290  13.48$  2.76$  15.41$
  Q  0.6645  7.05$  4.95$  3.88$
  Q  0.6645  7.5$  4.83$  2.46$
  Q  -1.3290  7.33$  5.24$  3.16$
  Q  0.6645  8.81$  21.03$  13.99$
  Q  0.6645  8.62$  21.89$  12.69$
  Q  -1.3290  8.69$  21.18$  13.15$
  Q  0.6645  6.62$  20.84$  6.83$
  Q  0.6645  7.51$  20.03$  5.9$
  Q  -1.3290  7.27$  20.72$  6.32$
  Q  0.6645  4.86$  6.48$  10.48$
  Q  0.6645  4$  6.83$  9.26$
  Q  -1.3290  4.67$  6.88$  9.74$
  Q  0.6645  6.69$  14.16$  0.67$
  Q  0.6645  6.62$  15.12$  -0.51$
  Q  -1.3290  6.93$  14.82$  0.21$
  Q  0.6645  13.91$  6.67$  5.77$
  Q  0.6645  15.21$  7.28$  5.3$
  Q  -1.3290  14.58$  6.69$  5.29$
  Q  0.6645  7.65$  10.5$  18.51$
  Q  0.6645  9.1$  10.95$  18.98$
  Q  -1.3290  8.3$  11.07$  18.68$
  Q  0.6645  13.22$  8.64$  18.98$
  Q  0.6645  13.21$  10.05$  18.59$
  Q  -1.3290  13.14$  9.47$  19.15$
  Q  0.6645  16$  7.75$  18.36$
  Q  0.6645  15.6$  9.27$  18.02$
  Q  -1.3290  15.71$  8.42$  17.89$
  Q  0.6645  14.31$  14.86$  20.04$
  Q  0.6645  14.51$  13.28$  20.2$
  Q  -1.3290  14.16$  14.07$  20.34$
  Q  0.6645  17.9$  8.02$  6.34$
  Q  0.6645  19.05$  7.55$  5.74$
  Q  -1.3290  18.57$  7.62$  6.36$
  Q  0.6645  6.96$  0.12$  16.74$
  Q  0.6645  7.99$  1.03$  16.11$
  Q  -1.3290  7.68$  0.54$  16.72$
  Q  0.6645  4.16$  14.9$  7.45$
  Q  0.6645  4.23$  13.36$  7.68$
  Q  -1.3290  3.91$  14.14$  7.75$
  Q  0.6645  15.85$  4.16$  11.72$
  Q  0.6645  16.01$  5.29$  10.83$
  Q  -1.3290  16.14$  4.92$  11.53$
  Q  0.6645  16.02$  16.18$  7.28$
  Q  0.6645  17.42$  15.91$  6.79$
  Q  -1.3290  16.75$  16.39$  6.9$
  Q  0.6645  9.14$  2.08$  7.08$
  Q  0.6645  8.64$  3.18$  8.02$
  Q  -1.3290  8.66$  2.42$  7.65$
  Q  0.6645  9.25$  19.04$  12.91$
  Q  0.6645  8.33$  18.12$  12.08$
  Q  -1.3290  8.95$  18.31$  12.64$
  Q  0.6645  15.24$  13.61$  11.39$
  Q  0.6645  16.45$  12.9$  10.92$
  Q  -1.3290  15.79$  13.4$  10.84$
  Q  0.6645  13.8$  3.31$  10.41$
  Q  0.6645  13.66$  2.48$  9.13$
  Q  -1.3290  13.57$  3.16$  9.6$
  Q  0.6645  4.85$  7.1$  5.21$
  Q  0.6645  5.33$  6.29$  6.42$
  Q  -1.3290  4.76$  6.6$  5.91$
  Q  0.6645  17.01$  18.51$  12.59$
  Q  0.6645  16.32$  18.91$  11.28$
  Q  -1.3290  16.64$  18.37$  11.86$
  Q  0.6645  3.96$  13.28$  14.66$
  Q  0.6645  3.71$  14.36$  15.62$
  Q  -1.3290  3.95$  14.07$  14.91$
  Q  0.6645  6.44$  10.44$  16.01$
  Q  0.6645  6.94$  10.08$  14.6$
  Q  -1.3290  7.01$  10.28$  15.42$
  Q  0.6645  11.47$  14.81$  2.16$
  Q  0.6645  11.01$  13.34$  1.81$
  Q  -1.3290  11$  14.1$  2.22$
  Q  0.6645  7.64$  7.2$  6.29$
  Q  0.6645  8.02$  6.17$  7.32$
  Q  -1.3290  7.54$  6.52$  6.71$
  Q  0.6645  8.61$  9$  4.22$
  Q  0.6645  7.27$  9.17$  4.91$
  Q  -1.3290  7.99$  8.78$  4.74$
  Q  0.6645  7.69$  1.24$  8.8$
  Q  0.6645  6.38$  0.6$  9.39$
  Q  -1.3290  7.23$  0.72$  9.31$
  Q  0.6645  10.16$  10.27$  3.11$
  Q  0.6645  8.71$  10.67$  3.61$
  Q  -1.3290  9.3$  10.3$  3.12$
  Q  0.6645  4.2$  17.88$  10.05$
  Q  0.6645  3.22$  18.72$  9.27$
  Q  -1.3290  3.97$  18.46$  9.45$
  Q  0.6645  8.14$  2.92$  14.75$
  Q  0.6645  9.09$  1.88$  14.01$
  Q  -1.3290  8.6$  2.19$  14.66$
  Q  0.6645  4.4$  16.89$  6.18$
  Q  0.6645  3.76$  17.09$  7.58$
  Q  -1.3290  4.33$  16.73$  7.02$
  Q  0.6645  9.01$  17.87$  5.19$
  Q  0.6645  10.01$  17.5$  6.38$
  Q  -1.3290  9.31$  17.83$  6.02$
  Q  0.6645  12.67$  15.94$  17.03$
  Q  0.6645  13.47$  16.6$  15.88$
  Q  -1.3290  13.1$  15.95$  16.31$
  Q  0.6645  1.84$  14.55$  14.37$
  Q  0.6645  0.49$  15.2$  13.76$
  Q  -1.3290  1.03$  14.74$  14.29$
  Q  0.6645  12.18$  6.78$  7.33$
  Q  0.6645  12.9$  6.39$  8.64$
  Q  -1.3290  12.67$  6.32$  7.83$
  Q  0.6645  8.6$  10.95$  15.79$
  Q  0.6645  9.06$  11.63$  17.04$
  Q  -1.3290  9.13$  11.41$  16.23$
  Q  0.6645  11.62$  21.11$  14.62$
  Q  0.6645  13.05$  21.82$  14.2$
  Q  -1.3290  12.21$  21.58$  14.14$
  Q  0.6645  9.86$  14.43$  14.52$
  Q  0.6645  9.08$  13.4$  15.39$
  Q  -1.3290  9.21$  13.97$  14.76$
  Q  0.6645  16.85$  6.13$  19.95$
  Q  0.6645  17.94$  6.18$  19.02$
  Q  -1.3290  17.17$  6.03$  19.22$
  Q  0.6645  13.86$  8.35$  2.96$
  Q  0.6645  14.91$  7.76$  1.96$
  Q  -1.3290  14.45$  8.33$  2.35$
  Q  0.6645  10.23$  21.22$  7.81$
  Q  0.6645  8.98$  20.94$  6.93$
  Q  -1.3290  9.79$  21.14$  7.1$
  Q  0.6645  19.38$  11.86$  7.75$
  Q  0.6645  17.86$  11.71$  7.75$
  Q  -1.3290  18.64$  11.59$  8.05$
  Q  0.6645  6.98$  20.78$  12.23$
  Q  0.6645  6.45$  20.98$  10.79$
  Q  -1.3290  6.44$  20.64$  11.58$
  Q  0.6645  6.88$  3.23$  10.95$
  Q  0.6645  5.69$  4.01$  10.73$
  Q  -1.3290  6.38$  3.64$  10.45$
  Q  0.6645  17.97$  7.4$  14.85$
  Q  0.6645  17.72$  8.13$  16.3$
  Q  -1.3290  18.18$  7.65$  15.7$
  Q  0.6645  7.09$  14.67$  9.93$
  Q  0.6645  6.69$  15.86$  10.99$
  Q  -1.3290  7.08$  15.12$  10.68$
  Q  0.6645  14.57$  14.05$  2.99$
  Q  0.6645  14.42$  14.62$  4.37$
  Q  -1.3290  14.82$  14.22$  3.78$
  Q  0.6645  5.19$  5.31$  18.28$
  Q  0.6645  4.5$  6.62$  17.96$
  Q  -1.3290  4.54$  5.83$  18.26$
  Q  0.6645  3.36$  9.2$  4.58$
  Q  0.6645  2.75$  9.65$  5.99$
  Q  -1.3290  3.17$  9.75$  5.25$
  Q  0.6645  5.15$  19.64$  8.02$
  Q  0.6645  4.41$  20.63$  7.1$
  Q  -1.3290  4.95$  20.01$  7.29$
  Q  0.6645  11.11$  20.11$  11.09$
  Q  0.6645  11.97$  20.39$  12.45$
  Q  -1.3290  11.69$  19.99$  11.72$
  Q  0.6645  15.33$  16.02$  18.65$
  Q  0.6645  15.93$  16.85$  19.72$
  Q  -1.3290  15.28$  16.53$  19.29$
  Q  0.6645  4.74$  17.51$  15.13$
  Q  0.6645  3.83$  17.37$  16.3$
  Q  -1.3290  4.31$  17.81$  15.78$
  Q  0.6645  5.28$  17.05$  4.11$
  Q  0.6645  3.91$  16.58$  3.71$
  Q  -1.3290  4.6$  16.55$  4.19$
  Q  0.6645  12.19$  16.72$  9.44$
  Q  0.6645  12.95$  17.75$  10.27$
  Q  -1.3290  12.75$  17.33$  9.57$
  Q  0.6645  6.34$  16.83$  1.82$
  Q  0.6645  6.78$  18.18$  2.45$
  Q  -1.3290  6.23$  17.65$  2.09$
  Q  0.6645  8.03$  6.13$  15.62$
  Q  0.6645  7.76$  4.79$  16.13$
  Q  -1.3290  7.87$  5.33$  15.53$
  Q  0.6645  12.16$  19.47$  2.65$
  Q  0.6645  11.73$  19.42$  1.13$
  Q  -1.3290  11.67$  19.27$  1.98$
  Q  0.6645  1.84$  12.03$  7.98$
  Q  0.6645  2.15$  10.69$  8.67$
  Q  -1.3290  2.07$  11.22$  8$
  Q  0.6645  18.26$  9.67$  15.21$
  Q  0.6645  18.03$  11.14$  14.68$
  Q  -1.3290  17.83$  10.34$  14.86$
  Q  0.6645  20.51$  14.76$  9.46$
  Q  0.6645  19.99$  13.61$  10.23$
  Q  -1.3290  20.56$  14.18$  10.05$
  Q  0.6645  15.38$  7.98$  20.81$
  Q  0.6645  14.32$  6.96$  20.28$
  Q  -1.3290  14.98$  7.21$  20.78$
  Q  0.6645  7.86$  4.75$  9.19$
  Q  0.6645  9.27$  5.38$  9.17$
  Q  -1.3290  8.66$  4.86$  8.9$
  Q  0.6645  11.48$  10.52$  19.66$
  Q  0.6645  10.92$  11.34$  20.84$
  Q  -1.3290  10.94$  11.06$  20.04$
  Q  0.6645  18.58$  16.01$  17.41$
  Q  0.6645  18.22$  15.85$  15.95$
  Q  -1.3290  18.3$  15.6$  16.74$
  Q  0.6645  8.75$  8.49$  -0.66$
  Q  0.6645  8.72$  9.84$  0.23$
  Q  -1.3290  8.83$  8.99$  0.06$
  Q  0.6645  3.9$  12.79$  4.27$
  Q  0.6645  2.77$  11.69$  4.61$
  Q  -1.3290  3.16$  12.36$  4.18$
  Q  0.6645  12.08$  15.08$  14.8$
  Q  0.6645  11.68$  15.53$  13.53$
  Q  -1.3290  11.75$  14.95$  14.08$
  Q  0.6645  18.94$  4.78$  10.08$
  Q  0.6645  19.67$  5.73$  9.15$
  Q  -1.3290  19.1$  5.52$  9.7$
  Q  0.6645  0.4$  13.29$  11.12$
  Q  0.6645  1.82$  13.08$  11.32$
  Q  -1.3290  1.03$  12.86$  11.4$
  Q  0.6645  20.45$  8.49$  9.69$
  Q  0.6645  21.56$  7.44$  9.17$
  Q  -1.3290  21.22$  8$  9.72$
  Q  0.6645  9.44$  3.25$  19.47$
  Q  0.6645  9.9$  4.07$  18.25$
  Q  -1.3290  9.54$  3.92$  18.98$
  Q  0.6645  7.28$  11.94$  22.08$
  Q  0.6645  7.77$  11.79$  20.65$
  Q  -1.3290  7.79$  11.64$  21.5$
  Q  0.6645  12.14$  3.6$  12.65$
  Q  0.6645  13.44$  4.2$  13.2$
  Q  -1.3290  12.72$  4.21$  12.81$
  Q  0.6645  5.18$  2.89$  13.69$
  Q  0.6645  5.15$  1.97$  12.45$
  Q  -1.3290  5.53$  2.43$  13.08$
  Q  0.6645  4.01$  13.37$  11.12$
  Q  0.6645  3.7$  13.99$  9.67$
  Q  -1.3290  3.56$  13.78$  10.52$
  Q  0.6645  3.07$  11.11$  19.16$
  Q  0.6645  3.1$  9.55$  19.14$
  Q  -1.3290  3.38$  10.35$  18.92$
  Q  0.6645  18.75$  15.1$  12.03$
  Q  0.6645  18.93$  14.36$  13.29$
  Q  -1.3290  18.96$  15.01$  12.81$
  Q  0.6645  1.82$  5.33$  12.68$
  Q  0.6645  2.13$  4.06$  13.45$
  Q  -1.3290  2.3$  4.8$  13.13$
  Q  0.6645  16.38$  10.73$  16.56$
  Q  0.6645  14.91$  11.29$  17.03$
  Q  -1.3290  15.77$  11.09$  17.07$
  Q  0.6645  17.51$  13.24$  14.64$
  Q  0.6645  18.59$  13.12$  15.78$
  Q  -1.3290  18.3$  13.09$  14.97$
  Q  0.6645  21.05$  10.96$  11.99$
  Q  0.6645  20.06$  9.96$  12.52$
  Q  -1.3290  20.42$  10.71$  12.46$
  Q  0.6645  19.09$  7.85$  11.2$
  Q  0.6645  18.45$  7.75$  12.52$
  Q  -1.3290  18.93$  8.12$  11.94$
  Q  0.6645  14.24$  13.41$  0.49$
  Q  0.6645  13.89$  12.22$  1.29$
  Q  -1.3290  14.27$  12.94$  1.16$
  Q  0.6645  11.44$  18.53$  13.18$
  Q  0.6645  11.96$  17.84$  14.51$
  Q  -1.3290  11.81$  17.94$  13.68$
  Q  0.6645  5.89$  7.52$  20.74$
  Q  0.6645  5.63$  7.36$  22.25$
  Q  -1.3290  5.43$  7.32$  21.43$
  Q  0.6645  11.59$  16.31$  18.97$
  Q  0.6645  10.54$  15.75$  17.99$
  Q  -1.3290  11.14$  16.27$  18.24$
  Q  0.6645  8.51$  16.94$  13.93$
  Q  0.6645  8.02$  15.58$  14.62$
  Q  -1.3290  8.03$  16.43$  14.42$
  Q  0.6645  17.31$  4.82$  16.45$
  Q  0.6645  17.81$  3.29$  16.5$
  Q  -1.3290  17.57$  4.04$  16.13$
  Q  0.6645  6.96$  12.35$  5.74$
  Q  0.6645  7.6$  13.74$  6.34$
  Q  -1.3290  7.5$  13.03$  5.8$
  Q  0.6645  5.93$  12.2$  12.32$
  Q  0.6645  5.2$  11.16$  11.42$
  Q  -1.3290  5.27$  11.82$  11.98$
  Q  0.6645  14.13$  4.28$  7.54$
  Q  0.6645  14.64$  4.6$  6.15$
  Q  -1.3290  14.44$  4.1$  6.8$
  Q  0.6645  8.77$  14.91$  7.8$
  Q  0.6645  7.41$  15.53$  7.95$
  Q  -1.3290  7.93$  14.89$  7.79$
  Q  0.6645  7.53$  3.99$  18.47$
  Q  0.6645  6.21$  3.5$  17.71$
  Q  -1.3290  6.78$  4.09$  18.01$
  Q  0.6645  16.76$  15.52$  14.49$
  Q  0.6645  17.77$  16.25$  13.76$
  Q  -1.3290  17.14$  16.2$  14.29$
  Q  0.6645  19$  8.34$  8.09$
  Q  0.6645  18.68$  9.67$  8.64$
  Q  -1.3290  18.95$  8.89$  8.71$
  Q  0.6645  7.36$  2.92$  5.86$
  Q  0.6645  7.18$  4.45$  6.18$
  Q  -1.3290  7.06$  3.7$  5.77$
  Q  0.6645  11.41$  6.62$  0.64$
  Q  0.6645  11.38$  5.3$  -0.28$
  Q  -1.3290  11.7$  6.01$  0.07$
  Q  0.6645  21.47$  7.36$  13.45$
  Q  0.6645  20.72$  8.46$  14.23$
  Q  -1.3290  21.41$  8.05$  13.97$
  Q  0.6645  12.19$  4.74$  6.17$
  Q  0.6645  11.57$  3.37$  5.66$
  Q  -1.3290  11.77$  4.24$  5.62$
  Q  0.6645  10.1$  2.81$  9.24$
  Q  0.6645  11.57$  2.99$  9.64$
  Q  -1.3290  10.75$  2.76$  9.77$
  Q  0.6645  6$  12.98$  2.45$
  Q  0.6645  5.5$  11.85$  1.53$
  Q  -1.3290  5.96$  12.53$  1.75$
  Q  0.6645  7.38$  1.9$  12.53$
  Q  0.6645  7.72$  1.41$  11.07$
  Q  -1.3290  7.89$  1.64$  11.86$
  Q  0.6645  4.38$  11.06$  17.41$
  Q  0.6645  4.71$  11.48$  15.97$
  Q  -1.3290  4.77$  11.53$  16.79$
  Q  0.6645  18.01$  15.42$  4.38$
  Q  0.6645  16.7$  15.13$  3.69$
  Q  -1.3290  17.45$  15.47$  3.75$
  Q  0.6645  14.93$  17.19$  12.9$
  Q  0.6645  13.42$  17.1$  12.93$
  Q  -1.3290  14.22$  16.84$  12.73$
  Q  0.6645  17.17$  13.91$  7.06$
  Q  0.6645  18.63$  13.85$  6.53$
  Q  -1.3290  17.82$  14.08$  6.55$
  Q  0.6645  15.97$  11.66$  19.07$
  Q  0.6645  15.69$  10.81$  20.34$
  Q  -1.3290  15.79$  11.56$  19.9$
  Q  0.6645  8.5$  15.96$  0.32$
  Q  0.6645  9.84$  16.43$  0.76$
  Q  -1.3290  9.04$  16.52$  0.62$
  Q  0.6645  17.8$  14.73$  10.14$
  Q  0.6645  17.14$  16.14$  10.63$
  Q  -1.3290  17.77$  15.6$  10.44$
  Q  0.6645  14.44$  6.03$  14.8$
  Q  0.6645  14.05$  4.6$  15.1$
  Q  -1.3290  14.56$  5.21$  14.91$
  Q  0.6645  6.62$  6.32$  14.09$
  Q  0.6645  6.06$  7.68$  13.61$
  Q  -1.3290  6.05$  6.92$  14.04$
  Q  0.6645  18.43$  11.87$  10.68$
  Q  0.6645  19.03$  12.12$  12.03$
  Q  -1.3290  18.58$  12.34$  11.35$
  Q  0.6645  11.4$  17.32$  1.62$
  Q  0.6645  12.69$  16.38$  1.32$
  Q  -1.3290  11.85$  16.64$  1.24$
  Q  0.6645  1.3$  10.98$  10.68$
  Q  0.6645  0.95$  9.48$  10.38$
  Q  -1.3290  1.47$  10.17$  10.44$
  Q  0.6645  15.41$  12.35$  7.87$
  Q  0.6645  16.04$  11.97$  6.53$
  Q  -1.3290  16.03$  12.15$  7.37$
  Q  0.6645  9.16$  5.7$  3.82$
  Q  0.6645  10.46$  5.05$  4.06$
  Q  -1.3290  9.99$  5.65$  3.79$
  Q  0.6645  8.74$  18.65$  17.61$
  Q  0.6645  9.76$  17.72$  18.3$
  Q  -1.3290  9.21$  18.38$  18.25$
  Q  0.6645  7.44$  17.85$  7.23$
  Q  0.6645  5.94$  17.42$  7.57$
  Q  -1.3290  6.77$  17.62$  7.74$
  Q  0.6645  6.96$  17.78$  9.98$
  Q  0.6645  6.69$  18.76$  11.12$
  Q  -1.3290  6.99$  18.03$  10.78$
  Q  0.6645  2.5$  17.44$  10.81$
  Q  0.6645  1.18$  17.18$  11.45$
  Q  -1.3290  1.71$  17.58$  10.95$
  Q  0.6645  11.67$  10.61$  1.13$
  Q  0.6645  10.16$  11.01$  1.24$
  Q  -1.3290  11$  11.12$  1.31$
  Q  0.6645  5.83$  8.47$  18.38$
  Q  0.6645  5.57$  9.66$  19.31$
  Q  -1.3290  6.02$  9.02$  19$
  Q  0.6645  8.83$  17.44$  2.36$
  Q  0.6645  9.59$  18.72$  2.58$
  Q  -1.3290  8.99$  18.15$  2.76$
  Q  0.6645  7.51$  8.37$  1.3$
  Q  0.6645  7.1$  7.13$  2.24$
  Q  -1.3290  6.97$  7.84$  1.78$
  Q  0.6645  13.42$  18.59$  4.7$
  Q  0.6645  12.33$  19.45$  5.07$
  Q  -1.3290  13$  19.28$  4.64$
  Q  0.6645  5.41$  3.41$  7.12$
  Q  0.6645  5.31$  3.77$  8.59$
  Q  -1.3290  5$  3.58$  7.83$
  Q  0.6645  10.29$  22.17$  10.19$
  Q  0.6645  9.34$  21.02$  9.82$
  Q  -1.3290  10.09$  21.43$  9.81$
  Q  0.6645  10.56$  7$  2.54$
  Q  0.6645  10.22$  8.12$  1.52$
  Q  -1.3290  10.73$  7.58$  1.94$
  Q  0.6645  4.08$  4.97$  12.23$
  Q  0.6645  5.16$  5.85$  12.53$
  Q  -1.3290  4.73$  5.47$  12.01$
  Q  0.6645  11.65$  15.97$  7.14$
  Q  0.6645  11.58$  15.6$  5.68$
  Q  -1.3290  11.64$  16.13$  6.34$
  Q  0.6645  12.74$  19.14$  17.16$
  Q  0.6645  11.63$  18.17$  17.33$
  Q  -1.3290  12.01$  18.82$  16.99$
  Q  0.6645  4.91$  10.61$  8.73$
  Q  0.6645  3.95$  10.98$  7.72$
  Q  -1.3290  4.64$  11.06$  8.11$
  Q  0.6645  15.51$  20.75$  14.62$
  Q  0.6645  14.72$  19.91$  13.53$
  Q  -1.3290  14.88$  20.53$  14.1$
  Q  0.6645  16.59$  1.5$  14.82$
  Q  0.6645  16.51$  3.12$  14.87$
  Q  -1.3290  16.26$  2.3$  14.64$
  Q  0.6645  2.79$  13.74$  18.39$
  Q  0.6645  4.09$  13.16$  17.76$
  Q  -1.3290  3.57$  13.76$  18.04$
  Q  0.6645  5.59$  8.09$  3.13$
  Q  0.6645  4.23$  7.32$  3.2$
  Q  -1.3290  4.78$  7.91$  3.43$
  Q  0.6645  12.87$  20.91$  10.75$
  Q  0.6645  13.35$  21.5$  9.39$
  Q  -1.3290  13.3$  21.46$  10.26$
  Q  0.6645  4.82$  4.62$  15.36$
  Q  0.6645  4.57$  3.25$  16.21$
  Q  -1.3290  4.66$  3.79$  15.53$
  Q  0.6645  16.06$  20.34$  9.13$
  Q  0.6645  15.08$  20.84$  10.17$
  Q  -1.3290  15.8$  20.56$  9.93$
  Q  0.6645  5.18$  10.64$  5.14$
  Q  0.6645  5.76$  10.56$  6.52$
  Q  -1.3290  5.83$  10.59$  5.69$
  Q  0.6645  16.34$  4.52$  7.06$
  Q  0.6645  17.64$  5.51$  6.98$
  Q  -1.3290  17.15$  4.8$  6.79$
  Q  0.6645  5.5$  19.18$  5.55$
  Q  0.6645  5.88$  19.34$  4.08$
  Q  -1.3290  5.89$  18.97$  4.83$
  Q  0.6645  14.42$  21.85$  7.41$
  Q  0.6645  13.16$  20.85$  7.33$
  Q  -1.3290  13.67$  21.46$  7.67$
  Q  0.6645  12.75$  12.34$  17.54$
  Q  0.6645  12.69$  11.42$  16.25$
  Q  -1.3290  13.01$  11.75$  16.97$
*
