! NoMOPrint PrintBasis #MINIPRINT SMALLPRINT LARGEPRINT
! ALLPOP XYZFILE
#! BP86 3-21G   TightSCF
! ENGRAD
! B3LYP NormalPNO PModel #DecontractAux
#! VerySlowConv 
 %maxcore 5000
 %scf  maxiter   500  end 

%pal
    nprocs 32
end

%basis
    NewGTO O    # New basis for oxygen
        "aug-cc-pVTZ"
    end
    NewGTO C    # New basis for carbon
        "aug-cc-pVTZ"
    end
    NewGTO H    # New basis for hydrogen
        "cc-pVTZ"
    end
end

* xyz 0   1
  C  11.63  9.74  9.75  #1
  H  10.7  9.27  9.34  #2
  H  11.9  9.18  10.64  #3
  C  11.23  11.19  10.02  #4
  H  12.06  11.76  10.45  #5
  H  11.09  11.65  9.01  #6
  C  9.95  11.53  10.93  #7
  H  9.03  11.24  10.49  #8
  H  10.01  12.63  11.17  #9
  C  10.03  10.74  12.24  #10
  H  10.29  9.71  12.15  #11
  H  9.11  10.96  12.91  #12
  O  11.07  11.42  13  #13
  H  11.2  10.89  13.77  #14
  O  12.78  9.74  8.84  #15
  H  12.45  10.19  8.04  #16
  O  13.15  13.04  12.65  #17
  H  12.45  12.41  12.65  #18
  H  12.98  13.45  11.78  #19
  O  9.44  7.34  10.48  #20
  H  9.08  7.05  9.6  #21
  H  9.18  6.76  11.22  #22
  O  8.89  6.68  7.8  #23
  H  8.03  6.7  7.42  #24
  H  9.1  7.59  7.52  #25
  O  14.21  8.67  11.82  #26
  H  15.18  8.71  12.01  #27
  H  14.35  8.6  10.85  #28
  O  8.53  12.67  7.76  #29
  H  7.73  13.06  8.08  #30
  H  9.21  13.35  7.93  #31
  O  11.88  6.87  6.26  #32
  H  11.86  6.36  5.46  #33
  H  10.99  7.22  6.4  #34
  O  9.98  8.83  6.6  #35
  H  10.73  9.38  6.53  #36
  H  9.4  8.91  5.77  #37
  O  8.41  8.56  14.97  #38
  H  9.2  9.02  15.1  #39
  H  8.75  7.65  15.01  #40
  O  6.27  7.85  7.29  #41
  H  5.72  7.77  6.51  #42
  H  6.64  8.71  7.47  #43
  O  12.14  6.42  10.06  #44
  H  12.89  6.93  9.79  #45
  H  11.32  6.94  10.09  #46
  O  7.04  10.46  7.48  #47
  H  6.19  10.65  7.88  #48
  H  7.74  11.07  7.83  #49
  O  15.65  11.75  11.44  #50
  H  15.63  11.18  10.68  #51
  H  14.83  11.78  11.92  #52
  O  8.47  5.73  12.58  #53
  H  7.71  5.1  12.33  #54
  H  9.32  5.3  12.82  #55
  O  9.26  15.29  9.22  #56
  H  8.67  15.79  8.65  #57
  H  9.68  16.02  9.78  #58
  O  8.17  12.31  4.74  #59
  H  8.8  12.57  4.07  #60
  H  8.48  12.58  5.64  #61
  O  16.87  8.89  11.68  #62
  H  17.59  9.46  11.42  #63
  H  16.97  8.16  11.03  #64
  O  5.48  13.67  7.97  #65
  H  5.13  13.25  8.75  #66
  H  5.08  13.23  7.2  #67
  O  6.94  15.69  7.3  #68
  H  6.33  14.94  7.62  #69
  H  7.11  15.64  6.37  #70
  O  11.44  14.75  7.85  #71
  H  11.38  14.31  6.96  #72
  H  10.58  15.12  8.09  #73
  O  12.4  8.02  13.71  #74
  H  13.17  8.12  13.11  #75
  H  12.01  7.12  13.45  #76
  O  9.62  4.24  6.86  #77
  H  9.29  5.1  7.12  #78
  H  8.99  3.54  7.09  #79
  O  15.45  9.97  8.97  #80
  H  14.5  9.96  9.01  #81
  H  15.72  9.06  9.22  #82
  O  11.13  9.35  15.63  #83
  H  11.64  8.93  14.88  #84
  H  11.69  10.1  15.77  #85
  O  15.08  7.35  9.44  #86
  H  14.92  7.13  8.52  #87
  H  15.28  6.53  9.9  #88
  O  7.14  14.2  10.52  #89
  H  6.99  13.2  10.68  #90
  H  8.08  14.39  10.29  #91
  O  6.37  11.67  10.91  #92
  H  5.97  11.04  10.27  #93
  H  6.52  11.1  11.63  #94
  O  13.07  13.98  10.06  #95
  H  14  13.94  9.78  #96
  H  12.52  14.17  9.32  #97
  O  13.53  15.33  14.46  #98
  H  14.25  15.66  13.87  #99
  H  13.36  14.44  14.1  #100
  O  7.46  8.73  12.05  #101
  H  8.06  8.64  11.3  #102
  H  7.94  8.42  12.87  #103
  O  11.6  12.15  15.88  #104
  H  11.4  12.4  16.79  #105
  H  11.03  12.67  15.28  #106
  O  12.23  10.6  5.87  #107
  H  12.11  10.05  5.1  #108
  H  13.11  10.96  5.91  #109
  Q  0.6645  8.61$  6.78$  19.95$
  Q  0.6645  8.42$  6.2$  21.26$
  Q  -1.3290  8.83$  6.69$  20.73$
  Q  0.6645  4.5$  16.23$  16.85$
  Q  0.6645  5.55$  17.21$  17.57$
  Q  -1.3290  5.1$  16.87$  16.93$
  Q  0.6645  13.45$  14.8$  2.41$
  Q  0.6645  13.06$  13.43$  2.97$
  Q  -1.3290  12.95$  14.25$  2.74$
  Q  0.6645  2.87$  14.57$  16.97$
  Q  0.6645  3.76$  13.89$  15.8$
  Q  -1.3290  3.6$  14.3$  16.53$
  Q  0.6645  12.83$  19.99$  10.98$
  Q  0.6645  13.56$  21.19$  10.51$
  Q  -1.3290  13.16$  20.48$  10.38$
  Q  0.6645  10.55$  2.69$  15.27$
  Q  0.6645  9.98$  3.12$  13.95$
  Q  -1.3290  10.59$  3.07$  14.53$
  Q  0.6645  8.03$  6.15$  4.37$
  Q  0.6645  6.63$  5.77$  4.15$
  Q  -1.3290  7.21$  6.29$  4.38$
  Q  0.6645  4.75$  8.86$  14.75$
  Q  0.6645  3.77$  9.35$  13.73$
  Q  -1.3290  4.08$  9.26$  14.54$
  Q  0.6645  6.81$  15.34$  12.21$
  Q  0.6645  7.06$  15.7$  13.78$
  Q  -1.3290  6.65$  15.72$  13$
  Q  0.6645  18.7$  12.66$  8.65$
  Q  0.6645  20.21$  12.26$  8.31$
  Q  -1.3290  19.51$  12.37$  8.8$
  Q  0.6645  11.28$  7.56$  0.59$
  Q  0.6645  10.59$  6.17$  0.41$
  Q  -1.3290  11.25$  6.71$  0.55$
  Q  0.6645  17.44$  10.93$  16.49$
  Q  0.6645  16.37$  10.03$  17.16$
  Q  -1.3290  17.08$  10.17$  16.73$
  Q  0.6645  13.55$  13.54$  16.95$
  Q  0.6645  13.94$  12.28$  17.58$
  Q  -1.3290  14$  13.07$  17.44$
  Q  0.6645  19.21$  13.96$  15.46$
  Q  0.6645  18.15$  14.71$  14.5$
  Q  -1.3290  18.53$  14.07$  14.92$
  Q  0.6645  14.14$  6.13$  17.71$
  Q  0.6645  14.45$  7.22$  16.75$
  Q  -1.3290  14.45$  6.89$  17.51$
  Q  0.6645  12.64$  6.21$  3.2$
  Q  0.6645  11.44$  6.67$  2.46$
  Q  -1.3290  11.89$  6.62$  3.13$
  Q  0.6645  14.44$  17.35$  3.34$
  Q  0.6645  14.27$  17.97$  1.99$
  Q  -1.3290  14.54$  17.94$  2.77$
  Q  0.6645  10.05$  13.23$  1.94$
  Q  0.6645  9.7$  14.63$  2.46$
  Q  -1.3290  9.73$  13.78$  2.48$
  Q  0.6645  3.04$  14.07$  11.3$
  Q  0.6645  2.02$  12.81$  11.36$
  Q  -1.3290  2.7$  13.31$  11.57$
  Q  0.6645  6.46$  15.78$  16.09$
  Q  0.6645  7.08$  14.29$  15.99$
  Q  -1.3290  7$  15.16$  15.83$
  Q  0.6645  4.36$  16.24$  5.07$
  Q  0.6645  4.36$  14.74$  4.78$
  Q  -1.3290  4.3$  15.55$  4.56$
  Q  0.6645  2.06$  14.89$  7.21$
  Q  0.6645  0.6$  14.34$  7.18$
  Q  -1.3290  1.4$  14.35$  6.99$
  Q  0.6645  1.18$  9.23$  16.42$
  Q  0.6645  1.56$  9.79$  17.82$
  Q  -1.3290  1.55$  9.77$  16.97$
  Q  0.6645  10.6$  1.8$  17.21$
  Q  0.6645  9.69$  3.03$  17.34$
  Q  -1.3290  9.91$  2.26$  17.08$
  Q  0.6645  14.32$  3.99$  18.54$
  Q  0.6645  14$  4.74$  19.76$
  Q  -1.3290  13.87$  4.5$  18.99$
  Q  0.6645  4.7$  12.42$  14.6$
  Q  0.6645  4.74$  11.15$  15.2$
  Q  -1.3290  4.95$  11.92$  15.18$
  Q  0.6645  7.18$  20.89$  9.98$
  Q  0.6645  6.09$  19.94$  9.6$
  Q  -1.3290  6.38$  20.66$  9.88$
  Q  0.6645  6.81$  1.25$  9.74$
  Q  0.6645  7.86$  2.09$  9.16$
  Q  -1.3290  7.4$  1.82$  9.79$
  Q  0.6645  1.97$  12.06$  9.33$
  Q  0.6645  2.09$  12.98$  8.13$
  Q  -1.3290  2.26$  12.34$  8.6$
  Q  0.6645  15.02$  15.11$  7.08$
  Q  0.6645  14.89$  13.56$  7.43$
  Q  -1.3290  14.93$  14.43$  7.59$
  Q  0.6645  7.15$  16.24$  19.69$
  Q  0.6645  7.39$  15.65$  18.37$
  Q  -1.3290  6.97$  16.1$  18.9$
  Q  0.6645  19.34$  9.56$  6.33$
  Q  0.6645  20.36$  10.68$  5.8$
  Q  -1.3290  19.65$  10.19$  5.84$
  Q  0.6645  9.01$  14.65$  15.13$
  Q  0.6645  10.36$  15.07$  14.68$
  Q  -1.3290  9.85$  14.58$  15.11$
  Q  0.6645  4.94$  17.71$  9.29$
  Q  0.6645  5.76$  17.04$  8.26$
  Q  -1.3290  5.38$  17.69$  8.58$
  Q  0.6645  14.41$  14.1$  21.91$
  Q  0.6645  15.08$  12.92$  21.11$
  Q  -1.3290  14.44$  13.42$  21.35$
  Q  0.6645  4.04$  11.23$  8.7$
  Q  0.6645  4.2$  9.83$  8.94$
  Q  -1.3290  4.5$  10.58$  8.85$
  Q  0.6645  18.77$  5.55$  8.62$
  Q  0.6645  18.56$  5.18$  7.24$
  Q  -1.3290  18.81$  5.03$  7.99$
  Q  0.6645  3.32$  3.48$  8.19$
  Q  0.6645  4.64$  4.27$  8.04$
  Q  -1.3290  4.09$  3.65$  7.86$
  Q  0.6645  7.89$  1.88$  16.29$
  Q  0.6645  6.76$  2.88$  16.02$
  Q  -1.3290  7.21$  2.2$  15.9$
  Q  0.6645  2.09$  6.76$  12.52$
  Q  0.6645  2.12$  7.65$  13.79$
  Q  -1.3290  2.3$  6.97$  13.31$
  Q  0.6645  17.53$  2.64$  12.26$
  Q  0.6645  18.65$  2.97$  11.17$
  Q  -1.3290  18.05$  3.11$  11.78$
  Q  0.6645  10.26$  -0.76$  7.73$
  Q  0.6645  11.12$  0.52$  7.92$
  Q  -1.3290  10.38$  0.07$  7.91$
  Q  0.6645  9.43$  4.5$  4.36$
  Q  0.6645  10.29$  5.55$  3.93$
  Q  -1.3290  9.68$  5.04$  3.81$
  Q  0.6645  18.24$  8$  6.58$
  Q  0.6645  19.59$  7.53$  6.89$
  Q  -1.3290  18.92$  7.92$  7.07$
  Q  0.6645  2.14$  16.29$  8.73$
  Q  0.6645  3.11$  16.6$  7.51$
  Q  -1.3290  2.75$  16.12$  8.15$
  Q  0.6645  15$  4.15$  11.28$
  Q  0.6645  16.59$  3.81$  10.87$
  Q  -1.3290  15.72$  4$  10.73$
  Q  0.6645  13$  2.5$  12.16$
  Q  0.6645  12.88$  3.06$  10.7$
  Q  -1.3290  13.07$  3.07$  11.52$
  Q  0.6645  19.92$  6.52$  13.7$
  Q  0.6645  19.37$  7.93$  13.85$
  Q  -1.3290  19.87$  7.34$  13.49$
  Q  0.6645  9.64$  9.15$  1.31$
  Q  0.6645  9.59$  8.95$  -0.2$
  Q  -1.3290  9.95$  8.95$  0.57$
  Q  0.6645  2.59$  5.52$  17.03$
  Q  0.6645  3.17$  6.64$  16.09$
  Q  -1.3290  2.6$  6.26$  16.58$
  Q  0.6645  17.1$  15.52$  2.51$
  Q  0.6645  17.43$  15.04$  1$
  Q  -1.3290  17.18$  15.6$  1.64$
  Q  0.6645  18.75$  7.7$  9.26$
  Q  0.6645  19.11$  7.67$  10.73$
  Q  -1.3290  18.81$  7.36$  9.99$
  Q  0.6645  14.54$  1.24$  13.91$
  Q  0.6645  13.73$  0.44$  12.96$
  Q  -1.3290  14.34$  0.54$  13.53$
  Q  0.6645  0.54$  9.7$  14.03$
  Q  0.6645  -0.15$  8.27$  14.1$
  Q  -1.3290  0.39$  8.86$  14.31$
  Q  0.6645  11.69$  8.63$  3.66$
  Q  0.6645  10.94$  9.89$  3.25$
  Q  -1.3290  11.58$  9.47$  3.52$
  Q  0.6645  11.32$  4.15$  7.91$
  Q  0.6645  12.19$  4.97$  8.9$
  Q  -1.3290  12.03$  4.34$  8.35$
  Q  0.6645  10.02$  15.47$  0.66$
  Q  0.6645  11.28$  15.34$  1.46$
  Q  -1.3290  10.57$  15.76$  1.21$
  Q  0.6645  19.37$  8.7$  18.58$
  Q  0.6645  18.98$  9.19$  17.21$
  Q  -1.3290  19.52$  8.99$  17.82$
  Q  0.6645  8.48$  5.56$  14.35$
  Q  0.6645  9.64$  5.06$  15.2$
  Q  -1.3290  8.94$  5.5$  15.08$
  Q  0.6645  13.87$  9.87$  19.25$
  Q  0.6645  14.57$  8.79$  18.32$
  Q  -1.3290  14.43$  9.58$  18.67$
  Q  0.6645  0.02$  11.91$  11.55$
  Q  0.6645  0.37$  10.67$  10.6$
  Q  -1.3290  0.47$  11.46$  10.96$
  Q  0.6645  9.26$  14.04$  18.88$
  Q  0.6645  9.49$  14.16$  17.43$
  Q  -1.3290  9.33$  14.46$  18.17$
  Q  0.6645  5.4$  10.45$  3.75$
  Q  0.6645  6.51$  11.32$  4.43$
  Q  -1.3290  5.72$  11.16$  4.1$
  Q  0.6645  9.11$  19.56$  11.28$
  Q  0.6645  9.87$  20.48$  10.52$
  Q  -1.3290  9.4$  19.8$  10.55$
  Q  0.6645  7.24$  9.55$  5.54$
  Q  0.6645  7.22$  8.21$  4.78$
  Q  -1.3290  7.48$  8.99$  4.94$
  Q  0.6645  17.85$  6.32$  4.79$
  Q  0.6645  18.92$  5.21$  4.72$
  Q  -1.3290  18.26$  5.61$  5.04$
  Q  0.6645  14.66$  5.97$  14.94$
  Q  0.6645  13.42$  6.76$  14.89$
  Q  -1.3290  13.83$  6.06$  14.97$
  Q  0.6645  12.1$  16.71$  17.2$
  Q  0.6645  12.97$  16.19$  16.03$
  Q  -1.3290  12.83$  16.46$  16.83$
  Q  0.6645  3.86$  10.8$  11.77$
  Q  0.6645  3.53$  9.47$  11$
  Q  -1.3290  3.58$  10$  11.66$
  Q  0.6645  5.07$  15.49$  19.2$
  Q  0.6645  4.29$  14.26$  18.94$
  Q  -1.3290  4.62$  14.84$  19.44$
  Q  0.6645  17.46$  9$  13.63$
  Q  0.6645  17.62$  9.23$  15.14$
  Q  -1.3290  17.74$  8.83$  14.41$
  Q  0.6645  5.51$  2.12$  13.81$
  Q  0.6645  4.95$  2.95$  12.64$
  Q  -1.3290  5.44$  2.37$  13.01$
  Q  0.6645  17.29$  14.23$  7.54$
  Q  0.6645  17.39$  14.47$  9.04$
  Q  -1.3290  17.7$  14.45$  8.27$
  Q  0.6645  12.07$  19.39$  5.02$
  Q  0.6645  11.02$  18.4$  5.07$
  Q  -1.3290  11.44$  19$  4.71$
  Q  0.6645  13.64$  17.14$  8.67$
  Q  0.6645  12.48$  16.49$  7.88$
  Q  -1.3290  12.91$  17.12$  8.21$
  Q  0.6645  18.47$  16.58$  7.68$
  Q  0.6645  17.15$  17.14$  8.22$
  Q  -1.3290  17.89$  17.17$  7.8$
  Q  0.6645  3.59$  4.85$  11.03$
  Q  0.6645  3.32$  4.66$  12.51$
  Q  -1.3290  3.69$  4.52$  11.78$
  Q  0.6645  16.32$  8.59$  4.81$
  Q  0.6645  16.01$  7.38$  5.65$
  Q  -1.3290  16.53$  7.9$  5.28$
  Q  0.6645  8.17$  18.94$  13.43$
  Q  0.6645  7.1$  19.76$  12.66$
  Q  -1.3290  7.86$  19.62$  12.97$
  Q  0.6645  12$  2.71$  5.16$
  Q  0.6645  12.71$  3.65$  6.24$
  Q  -1.3290  12.59$  3.27$  5.47$
  Q  0.6645  5.94$  8.86$  17.5$
  Q  0.6645  7.38$  8.82$  16.91$
  Q  -1.3290  6.68$  8.5$  17.28$
  Q  0.6645  15.02$  17.2$  17.56$
  Q  0.6645  15.22$  18.59$  17.93$
  Q  -1.3290  15.5$  17.85$  17.65$
  Q  0.6645  5.59$  4.65$  11.52$
  Q  0.6645  6.47$  3.72$  10.71$
  Q  -1.3290  6.23$  4.45$  10.98$
  Q  0.6645  18.61$  16.35$  13$
  Q  0.6645  17.84$  16.88$  14.07$
  Q  -1.3290  17.94$  16.41$  13.44$
  Q  0.6645  16.09$  6.8$  0.74$
  Q  0.6645  15.08$  7.23$  1.86$
  Q  -1.3290  15.46$  7.26$  1.1$
  Q  0.6645  9.06$  1.11$  10.87$
  Q  0.6645  10.18$  0.87$  9.85$
  Q  -1.3290  9.85$  0.87$  10.62$
  Q  0.6645  20.17$  8.98$  12.02$
  Q  0.6645  19.52$  10.29$  12.48$
  Q  -1.3290  19.73$  9.68$  11.92$
  Q  0.6645  5.55$  15.02$  10.14$
  Q  0.6645  4.3$  15.3$  9.21$
  Q  -1.3290  4.73$  15.26$  9.96$
  Q  0.6645  4.77$  14.67$  13.52$
  Q  0.6645  3.45$  13.76$  13.22$
  Q  -1.3290  4.07$  14.19$  13.71$
  Q  0.6645  21.54$  13.01$  13.49$
  Q  0.6645  20.1$  12.58$  12.93$
  Q  -1.3290  20.95$  12.53$  13.07$
  Q  0.6645  5.38$  6.73$  8.28$
  Q  0.6645  5.59$  5.72$  9.49$
  Q  -1.3290  5.15$  6.17$  8.9$
  Q  0.6645  11.36$  0.84$  11.92$
  Q  0.6645  11.5$  1.36$  13.32$
  Q  -1.3290  11.77$  0.97$  12.63$
  Q  0.6645  11.03$  14.1$  19.69$
  Q  0.6645  10.82$  13.82$  21.09$
  Q  -1.3290  10.9$  14.33$  20.46$
  Q  0.6645  6.63$  12.22$  0.95$
  Q  0.6645  6.3$  11.63$  2.37$
  Q  -1.3290  6.61$  11.63$  1.58$
  Q  0.6645  10.17$  20.81$  15.64$
  Q  0.6645  9.84$  19.76$  16.85$
  Q  -1.3290  10.23$  20.08$  16.14$
  Q  0.6645  13.02$  2.46$  15.31$
  Q  0.6645  13.53$  3.71$  14.57$
  Q  -1.3290  13.65$  2.97$  14.97$
  Q  0.6645  9.74$  18.64$  14.69$
  Q  0.6645  9.58$  17.4$  13.74$
  Q  -1.3290  9.34$  17.98$  14.33$
  Q  0.6645  4.52$  18.1$  6.9$
  Q  0.6645  3.33$  18.53$  5.83$
  Q  -1.3290  3.86$  17.96$  6.28$
  Q  0.6645  11.95$  17.79$  12.29$
  Q  0.6645  12.46$  18.77$  13.43$
  Q  -1.3290  12.33$  18.5$  12.61$
  Q  0.6645  14.28$  2.19$  4.6$
  Q  0.6645  15.12$  1.81$  3.43$
  Q  -1.3290  14.98$  1.92$  4.26$
  Q  0.6645  16.6$  15.61$  5.11$
  Q  0.6645  17.49$  14.26$  5.07$
  Q  -1.3290  17.22$  15.08$  4.87$
  Q  0.6645  19.87$  9.12$  4.32$
  Q  0.6645  21.11$  9$  3.35$
  Q  -1.3290  20.42$  8.72$  3.82$
  Q  0.6645  4.37$  9.25$  1.99$
  Q  0.6645  5.37$  8.15$  2.27$
  Q  -1.3290  4.91$  8.82$  2.48$
  Q  0.6645  14.12$  4.65$  2.03$
  Q  0.6645  14.66$  4.97$  3.44$
  Q  -1.3290  14.22$  5.12$  2.74$
  Q  0.6645  5.21$  6.65$  14.64$
  Q  0.6645  6.03$  6.89$  15.89$
  Q  -1.3290  5.33$  6.79$  15.47$
  Q  0.6645  5.93$  10.16$  21.9$
  Q  0.6645  4.81$  9.91$  20.96$
  Q  -1.3290  5.59$  9.81$  21.25$
  Q  0.6645  8.36$  19.55$  7.5$
  Q  0.6645  9.33$  19.31$  8.64$
  Q  -1.3290  9.12$  19.4$  7.84$
  Q  0.6645  8.62$  5.22$  17.43$
  Q  0.6645  9.6$  5.12$  18.4$
  Q  -1.3290  8.97$  4.84$  18.04$
  Q  0.6645  2.45$  7.76$  6.1$
  Q  0.6645  0.89$  7.85$  6.15$
  Q  -1.3290  1.69$  8.14$  6.27$
  Q  0.6645  2.51$  10.66$  14.51$
  Q  0.6645  2.04$  10.91$  13.01$
  Q  -1.3290  2.15$  11.07$  13.84$
  Q  0.6645  12.19$  10.2$  21.04$
  Q  0.6645  12.99$  11.63$  21.07$
  Q  -1.3290  12.74$  10.81$  20.82$
  Q  0.6645  15.11$  11.08$  5.8$
  Q  0.6645  15.35$  10.72$  7.32$
  Q  -1.3290  15.17$  11.24$  6.64$
  Q  0.6645  21.65$  8.64$  9.05$
  Q  0.6645  20.51$  9.68$  9.31$
  Q  -1.3290  21.3$  9.38$  9.04$
  Q  0.6645  6.02$  14.01$  20.79$
  Q  0.6645  7.13$  14.54$  21.58$
  Q  -1.3290  6.69$  13.92$  21.24$
  Q  0.6645  5.67$  17.88$  13.41$
  Q  0.6645  5.55$  19.23$  13.87$
  Q  -1.3290  5.49$  18.67$  13.31$
  Q  0.6645  14.21$  10.99$  1.76$
  Q  0.6645  12.97$  10.71$  2.72$
  Q  -1.3290  13.63$  11.16$  2.4$
  Q  0.6645  8.39$  14.52$  4.58$
  Q  0.6645  7.98$  15.92$  4.1$
  Q  -1.3290  8.21$  15.35$  4.68$
  Q  0.6645  19.15$  12.32$  19.08$
  Q  0.6645  17.87$  12.96$  18.58$
  Q  -1.3290  18.48$  12.84$  19.12$
  Q  0.6645  8.56$  10.91$  16.95$
  Q  0.6645  9.63$  9.81$  17.01$
  Q  -1.3290  8.89$  10.19$  17.24$
  Q  0.6645  7.28$  1.75$  7.02$
  Q  0.6645  8.74$  1.29$  7.34$
  Q  -1.3290  8.07$  1.85$  7.28$
  Q  0.6645  1.67$  12.99$  14.27$
  Q  0.6645  1.41$  14.57$  14.68$
  Q  -1.3290  1.31$  13.71$  14.67$
  Q  0.6645  16.38$  14.71$  11.23$
  Q  0.6645  16$  13.25$  11.03$
  Q  -1.3290  16.13$  14.06$  10.77$
  Q  0.6645  7.54$  2.64$  14.01$
  Q  0.6645  7.82$  2.65$  12.5$
  Q  -1.3290  8.05$  2.73$  13.33$
  Q  0.6645  10.32$  18.07$  10.34$
  Q  0.6645  11.48$  17.44$  9.59$
  Q  -1.3290  10.86$  17.46$  10.17$
  Q  0.6645  15.75$  10.32$  0.27$
  Q  0.6645  15.57$  9.06$  0.96$
  Q  -1.3290  15.43$  9.88$  0.85$
  Q  0.6645  15.43$  1.37$  10.39$
  Q  0.6645  15.89$  0.23$  9.53$
  Q  -1.3290  15.42$  0.59$  10.17$
  Q  0.6645  11.49$  4.57$  13.01$
  Q  0.6645  11.95$  5.45$  11.89$
  Q  -1.3290  11.53$  5.27$  12.57$
  Q  0.6645  15.05$  10.73$  3.45$
  Q  0.6645  16.57$  10.62$  3.89$
  Q  -1.3290  15.71$  10.46$  3.95$
  Q  0.6645  10.78$  6.3$  19.94$
  Q  0.6645  11.81$  6.1$  18.68$
  Q  -1.3290  11.08$  6.09$  19.14$
  Q  0.6645  12.42$  19.44$  15.84$
  Q  0.6645  13.93$  19.53$  15.21$
  Q  -1.3290  13.06$  19.57$  15.24$
  Q  0.6645  15.88$  10.71$  19.89$
  Q  0.6645  16.91$  11.79$  19.98$
  Q  -1.3290  16.22$  11.38$  20.26$
  Q  0.6645  15.63$  12.27$  1.69$
  Q  0.6645  17.13$  12.4$  2.13$
  Q  -1.3290  16.51$  12.27$  1.59$
  Q  0.6645  15.91$  19.98$  12.2$
  Q  0.6645  15.33$  20.28$  10.82$
  Q  -1.3290  15.78$  19.82$  11.38$
  Q  0.6645  12.48$  13$  18.7$
  Q  0.6645  11.39$  11.8$  19.11$
  Q  -1.3290  11.7$  12.54$  18.71$
  Q  0.6645  14.98$  17.33$  5.53$
  Q  0.6645  13.77$  16.32$  5.41$
  Q  -1.3290  14.59$  16.6$  5.31$
  Q  0.6645  8.68$  10.4$  3.46$
  Q  0.6645  8.42$  11.09$  2.13$
  Q  -1.3290  8.88$  10.66$  2.69$
  Q  0.6645  13.84$  17.18$  19.39$
  Q  0.6645  13.74$  15.73$  19.24$
  Q  -1.3290  14$  16.41$  19.61$
  Q  0.6645  14.34$  17.45$  12.33$
  Q  0.6645  15.82$  17.01$  12.63$
  Q  -1.3290  15.01$  16.9$  12.44$
  Q  0.6645  2.47$  5.28$  14.38$
  Q  0.6645  2.35$  3.9$  15.08$
  Q  -1.3290  2.49$  4.43$  14.42$
  Q  0.6645  12.06$  15.3$  4.25$
  Q  0.6645  11.15$  16.03$  5.35$
  Q  -1.3290  11.87$  15.71$  5.02$
  Q  0.6645  7.99$  18.33$  3.54$
  Q  0.6645  8.97$  17.68$  2.61$
  Q  -1.3290  8.41$  17.68$  3.19$
  Q  0.6645  15.66$  3.41$  7.14$
  Q  0.6645  15.68$  3.46$  8.6$
  Q  -1.3290  15.73$  3.09$  7.88$
  Q  0.6645  3.76$  17.02$  10.79$
  Q  0.6645  4.3$  18.24$  11.56$
  Q  -1.3290  3.85$  17.85$  10.96$
  Q  0.6645  8.63$  5.01$  2$
  Q  0.6645  8.11$  4.25$  0.68$
  Q  -1.3290  8.21$  4.92$  1.27$
  Q  0.6645  16.42$  4.7$  5.46$
  Q  0.6645  15.22$  3.8$  4.99$
  Q  -1.3290  15.6$  4.47$  5.39$
  Q  0.6645  11.11$  12.13$  5.87$
  Q  0.6645  10.78$  13.32$  4.83$
  Q  -1.3290  10.91$  12.95$  5.6$
  Q  0.6645  9.17$  16.74$  6.31$
  Q  0.6645  9.76$  18.12$  6.79$
  Q  -1.3290  9.76$  17.29$  6.55$
  Q  0.6645  4.49$  11.36$  18.1$
  Q  0.6645  4.21$  12.63$  17.44$
  Q  -1.3290  4.34$  12.16$  18.1$
  Q  0.6645  17.52$  5.53$  17.88$
  Q  0.6645  16.41$  6.24$  18.47$
  Q  -1.3290  17.08$  5.79$  18.51$
  Q  0.6645  5.55$  7.5$  12.25$
  Q  0.6645  4.28$  6.96$  12.78$
  Q  -1.3290  5.09$  7.01$  12.73$
  Q  0.6645  6$  3.96$  17.55$
  Q  0.6645  5.52$  5.09$  16.59$
  Q  -1.3290  5.62$  4.28$  16.87$
  Q  0.6645  8.12$  12.77$  20.43$
  Q  0.6645  8.67$  11.43$  19.86$
  Q  -1.3290  8.71$  12.24$  20.07$
  Q  0.6645  6.66$  12.01$  16.16$
  Q  0.6645  7.41$  12.53$  17.34$
  Q  -1.3290  7.35$  12.31$  16.54$
  Q  0.6645  2.5$  16.94$  15.61$
  Q  0.6645  3.09$  15.74$  14.67$
  Q  -1.3290  2.57$  16.39$  14.91$
  Q  0.6645  12.68$  2.32$  8.03$
  Q  0.6645  13.28$  0.89$  7.69$
  Q  -1.3290  12.73$  1.46$  8.02$
  Q  0.6645  9.93$  16.44$  17.64$
  Q  0.6645  9.97$  17.19$  16.2$
  Q  -1.3290  10.2$  16.95$  17.02$
  Q  0.6645  16.96$  6.89$  14.78$
  Q  0.6645  17.1$  5.64$  15.59$
  Q  -1.3290  16.68$  6.22$  15.2$
  Q  0.6645  18.27$  10.32$  2.36$
  Q  0.6645  19.03$  10.81$  3.68$
  Q  -1.3290  18.37$  10.64$  3.18$
  Q  0.6645  3.65$  9.32$  17.44$
  Q  0.6645  3.99$  8.99$  18.88$
  Q  -1.3290  4.12$  9.35$  18.17$
  Q  0.6645  19.7$  14.49$  7.13$
  Q  0.6645  20.57$  14.81$  5.86$
  Q  -1.3290  20.4$  14.74$  6.72$
  Q  0.6645  4.55$  12.31$  5.16$
  Q  0.6645  3.18$  12.67$  5.85$
  Q  -1.3290  4$  12.75$  5.65$
  Q  0.6645  11.01$  11.5$  0.92$
  Q  0.6645  10.04$  11.93$  -0.12$
  Q  -1.3290  10.61$  12.07$  0.44$
  Q  0.6645  11.91$  15.98$  13.61$
  Q  0.6645  11.33$  15.59$  12.25$
  Q  -1.3290  11.29$  15.94$  13$
  Q  0.6645  14.89$  6.04$  6.46$
  Q  0.6645  13.66$  6.92$  6.81$
  Q  -1.3290  14.5$  6.69$  6.78$
  Q  0.6645  6.35$  7.3$  18.89$
  Q  0.6645  5.37$  6.94$  20.07$
  Q  -1.3290  6.07$  6.87$  19.57$
  Q  0.6645  16.73$  12.07$  6.29$
  Q  0.6645  18.21$  11.91$  6.15$
  Q  -1.3290  17.5$  12.33$  6.16$
  Q  0.6645  4.34$  6.55$  4.88$
  Q  0.6645  4.16$  8.04$  4.35$
  Q  -1.3290  4.22$  7.4$  4.91$
  Q  0.6645  2.68$  8.62$  8.22$
  Q  0.6645  3.33$  7.63$  9.14$
  Q  -1.3290  3.02$  8.37$  8.93$
  Q  0.6645  15.46$  16.26$  9.94$
  Q  0.6645  15.69$  17.72$  10.1$
  Q  -1.3290  15.5$  17.04$  9.67$
  Q  0.6645  17.42$  13.72$  16.49$
  Q  0.6645  16.08$  13.13$  17.12$
  Q  -1.3290  16.92$  13.28$  17.06$
  Q  0.6645  7.44$  9.45$  20.2$
  Q  0.6645  8.38$  9.62$  19.04$
  Q  -1.3290  8.18$  9.58$  19.89$
  Q  0.6645  17.99$  12.28$  13.94$
  Q  0.6645  17.32$  11.83$  12.64$
  Q  -1.3290  17.9$  11.78$  13.24$
  Q  0.6645  12.89$  19$  7.38$
  Q  0.6645  13.16$  20.14$  8.28$
  Q  -1.3290  13$  19.81$  7.55$
*
