! NoMOPrint PrintBasis #MINIPRINT SMALLPRINT LARGEPRINT
! ALLPOP XYZFILE
#! BP86 3-21G   TightSCF
! ENGRAD
! B3LYP NormalPNO PModel #DecontractAux
#! VerySlowConv 
 %maxcore 5000
 %scf  maxiter   500  end 

%pal
    nprocs 32
end

%basis
    NewGTO O    # New basis for oxygen
        "aug-cc-pVTZ"
    end
    NewGTO C    # New basis for carbon
        "aug-cc-pVTZ"
    end
    NewGTO H    # New basis for hydrogen
        "cc-pVTZ"
    end
end

* xyz 0   1
  C  11.94  11.1  11.84  #1
  H  11.81  12.13  11.71  #2
  H  12.26  10.68  10.92  #3
  C  10.53  10.57  12.23  #4
  H  10.76  9.71  12.9  #5
  H  10.15  11.34  12.85  #6
  C  9.51  10.26  11.17  #7
  H  8.58  10.15  11.68  #8
  H  9.71  9.31  10.74  #9
  C  9.32  11.47  10.2  #10
  H  10.23  11.72  9.69  #11
  H  9.01  12.4  10.66  #12
  O  8.38  11.09  9.24  #13
  H  8.06  11.86  8.82  #14
  O  12.98  10.91  12.84  #15
  H  13.66  11.6  12.62  #16
  O  5.91  12.69  9.49  #17
  H  6.7  13.23  9.29  #18
  H  5.45  13.35  10.01  #19
  O  11.4  12.16  7.59  #20
  H  10.81  12.11  6.82  #21
  H  10.94  12.8  8.18  #22
  O  13.07  7.47  12.11  #23
  H  12.7  8.04  11.45  #24
  H  12.44  7.52  12.88  #25
  O  9.19  7.07  12.1  #26
  H  8.42  7.6  11.97  #27
  H  8.88  6.12  12.12  #28
  O  12.42  8.81  14.69  #29
  H  13.04  8.04  14.89  #30
  H  12.86  9.43  14.02  #31
  O  7.93  8.58  8.14  #32
  H  8.8  8.89  7.9  #33
  H  7.71  9.55  8.48  #34
  O  2.79  12.65  8.48  #35
  H  2.88  12.77  7.55  #36
  H  3.68  12.32  8.74  #37
  O  10.75  9.12  7.63  #38
  H  11  8.67  6.76  #39
  H  10.79  10.1  7.5  #40
  O  15.14  12.83  11.63  #41
  H  15.32  12.63  10.69  #42
  H  15.56  12.28  12.23  #43
  O  11.08  7.31  10.01  #44
  H  10.27  7.22  10.52  #45
  H  10.92  8.08  9.38  #46
  O  10.89  12.85  14.89  #47
  H  10.75  13.47  14.15  #48
  H  11.8  12.9  15.13  #49
  O  6.51  6.23  7.86  #50
  H  7.01  7.06  8.09  #51
  H  7.22  5.59  7.75  #52
  O  12.32  14.2  5.64  #53
  H  11.91  13.76  4.92  #54
  H  12.08  13.71  6.39  #55
  O  15.76  7.22  11.3  #56
  H  16.4  6.92  12.04  #57
  H  14.91  7.46  11.68  #58
  O  7.52  9.74  5.72  #59
  H  6.83  9.5  5.11  #60
  H  7.21  9.12  6.44  #61
  O  10.42  14.59  8.74  #62
  H  9.91  14.9  8  #63
  H  11.17  15.19  8.83  #64
  O  8.02  13.35  7.37  #65
  H  7.99  14.3  7.18  #66
  H  7.74  13.06  6.49  #67
  O  10.89  14.74  12.73  #68
  H  10.74  15.56  13.25  #69
  H  11.68  14.84  12.23  #70
  O  13.84  12.63  8.85  #71
  H  13.04  12.24  8.45  #72
  H  13.96  13.46  8.44  #73
  O  8.74  4.32  12.26  #74
  H  8.97  3.57  12.87  #75
  H  9.39  4.01  11.61  #76
  O  6.75  8.17  12.6  #77
  H  5.95  7.66  12.64  #78
  H  6.42  9.08  12.51  #79
  O  12.49  4.76  11.67  #80
  H  12.65  4.78  10.73  #81
  H  12.49  5.73  11.82  #82
  O  5.55  10.64  11.84  #83
  H  4.85  10.14  11.4  #84
  H  5.91  11.25  11.14  #85
  O  10.35  10.19  15.8  #86
  H  11.14  9.71  15.51  #87
  H  10.43  11.06  15.42  #88
  O  5.11  10.44  8.06  #89
  H  5.02  10.76  7.16  #90
  H  5.31  11.2  8.56  #91
  O  10.86  6.15  14.05  #92
  H  10.39  6.65  13.36  #93
  H  10.87  6.66  14.89  #94
  O  8.08  15.21  10.45  #95
  H  8.04  14.97  11.34  #96
  H  8.89  14.82  10.15  #97
  O  15.98  11.93  14.13  #98
  H  16.89  12.19  14.3  #99
  H  16.2  10.99  14.1  #100
  O  13.78  6.3  15.06  #101
  H  12.89  6.06  14.73  #102
  H  14.36  6.46  14.33  #103
  O  13.5  14.92  11.18  #104
  H  14.06  14.22  11.56  #105
  H  13.74  15.75  11.58  #106
  O  5.33  15.22  10.71  #107
  H  4.95  15.48  11.51  #108
  H  6.24  15.58  10.74  #109
  O  10  11.38  5.46  #110
  H  9.27  10.75  5.54  #111
  H  10.6  10.97  4.74  #112
  Q  0.6645  6.35$  14.9$  0.79$
  Q  0.6645  7.23$  14.13$  -0.14$
  Q  -1.3290  6.93$  14.32$  0.58$
  Q  0.6645  4.29$  8.67$  0.82$
  Q  0.6645  4.84$  7.22$  1.03$
  Q  -1.3290  4.57$  8$  1.28$
  Q  0.6645  16.62$  5.12$  13.46$
  Q  0.6645  16.92$  6.25$  14.42$
  Q  -1.3290  16.86$  5.92$  13.64$
  Q  0.6645  17.73$  15.27$  8.36$
  Q  0.6645  18.77$  15.58$  7.31$
  Q  -1.3290  18.35$  15.71$  8.05$
  Q  0.6645  16.1$  15.46$  12.59$
  Q  0.6645  17.1$  16.44$  12.07$
  Q  -1.3290  16.84$  15.68$  12.28$
  Q  0.6645  19.91$  15.49$  17.4$
  Q  0.6645  20.42$  14.27$  18.15$
  Q  -1.3290  20.05$  14.67$  17.51$
  Q  0.6645  9.98$  15.21$  18.06$
  Q  0.6645  9.17$  16.22$  18.88$
  Q  -1.3290  9.62$  15.53$  18.76$
  Q  0.6645  10.47$  2.34$  6.09$
  Q  0.6645  10.29$  3.5$  7.14$
  Q  -1.3290  10.15$  3.06$  6.41$
  Q  0.6645  2.86$  14.54$  12.71$
  Q  0.6645  3.97$  14.21$  13.82$
  Q  -1.3290  3.43$  14.68$  13.33$
  Q  0.6645  7.36$  17.96$  9.12$
  Q  0.6645  6.54$  18.83$  8.16$
  Q  -1.3290  6.94$  18.15$  8.42$
  Q  0.6645  16.2$  18.6$  10.19$
  Q  0.6645  16.12$  19.36$  11.52$
  Q  -1.3290  15.86$  18.81$  10.94$
  Q  0.6645  1.41$  17.74$  6.03$
  Q  0.6645  0.68$  16.48$  6.66$
  Q  -1.3290  0.74$  17.23$  6.26$
  Q  0.6645  11.03$  11.46$  18.64$
  Q  0.6645  10.39$  10.48$  17.78$
  Q  -1.3290  10.7$  10.73$  18.5$
  Q  0.6645  8.17$  1.3$  14.2$
  Q  0.6645  7.42$  0.86$  15.38$
  Q  -1.3290  7.71$  0.74$  14.63$
  Q  0.6645  11.73$  4.85$  4.06$
  Q  0.6645  11.49$  4.19$  5.54$
  Q  -1.3290  11.92$  4.65$  4.93$
  Q  0.6645  1.58$  7.02$  9.04$
  Q  0.6645  1.29$  6.05$  10.2$
  Q  -1.3290  1.16$  6.71$  9.67$
  Q  0.6645  9.69$  18.39$  17.84$
  Q  0.6645  10.11$  19.52$  16.99$
  Q  -1.3290  10.06$  18.72$  17.17$
  Q  0.6645  14.27$  16.35$  13.77$
  Q  0.6645  14.21$  14.88$  14.33$
  Q  -1.3290  14.56$  15.59$  14.01$
  Q  0.6645  8.85$  8.21$  4.23$
  Q  0.6645  10.41$  7.91$  4.05$
  Q  -1.3290  9.64$  8.17$  3.83$
  Q  0.6645  17.19$  5.64$  9.96$
  Q  0.6645  17.76$  5.48$  8.5$
  Q  -1.3290  17.18$  5.55$  9.11$
  Q  0.6645  2.92$  8.72$  10.69$
  Q  0.6645  2.7$  9.79$  11.86$
  Q  -1.3290  3.06$  9.09$  11.47$
  Q  0.6645  9.05$  16.27$  6$
  Q  0.6645  7.91$  16.87$  7.01$
  Q  -1.3290  8.33$  16.26$  6.5$
  Q  0.6645  19.04$  14.86$  5.01$
  Q  0.6645  18.36$  13.54$  5.34$
  Q  -1.3290  18.53$  14.36$  5.48$
  Q  0.6645  14.54$  7.57$  19.63$
  Q  0.6645  13.43$  7.04$  18.87$
  Q  -1.3290  13.88$  7.66$  19.14$
  Q  0.6645  3.5$  13.27$  1.2$
  Q  0.6645  3.87$  13.92$  -0.11$
  Q  -1.3290  3.61$  13.92$  0.69$
  Q  0.6645  2.85$  11.42$  3.08$
  Q  0.6645  2.65$  11.64$  1.62$
  Q  -1.3290  3.11$  11.67$  2.32$
  Q  0.6645  17.05$  14.1$  10.39$
  Q  0.6645  17.08$  12.81$  9.55$
  Q  -1.3290  17.07$  13.66$  9.68$
  Q  0.6645  16.82$  8.09$  16.73$
  Q  0.6645  16.85$  6.68$  17.35$
  Q  -1.3290  16.97$  7.28$  16.72$
  Q  0.6645  12.78$  4.42$  17.86$
  Q  0.6645  13.76$  5.22$  17.01$
  Q  -1.3290  13.3$  5.06$  17.68$
  Q  0.6645  20.99$  13.15$  11.79$
  Q  0.6645  21.43$  12.42$  13.02$
  Q  -1.3290  20.93$  12.57$  12.38$
  Q  0.6645  14.59$  15.09$  18.89$
  Q  0.6645  13.34$  15.85$  18.44$
  Q  -1.3290  13.82$  15.19$  18.59$
  Q  0.6645  8.23$  6.46$  5.84$
  Q  0.6645  6.78$  6.85$  5.48$
  Q  -1.3290  7.6$  6.69$  5.34$
  Q  0.6645  7.48$  14.76$  17.05$
  Q  0.6645  6.04$  15.21$  16.8$
  Q  -1.3290  6.83$  15.31$  17.02$
  Q  0.6645  12.99$  15.8$  9.65$
  Q  0.6645  12.17$  17.02$  9.23$
  Q  -1.3290  12.63$  16.32$  9.12$
  Q  0.6645  5.32$  8.52$  3.06$
  Q  0.6645  4.83$  8.2$  4.45$
  Q  -1.3290  5.24$  8.65$  3.88$
  Q  0.6645  11.27$  14.44$  16.6$
  Q  0.6645  11.78$  15.86$  16.86$
  Q  -1.3290  11.21$  15.27$  16.66$
  Q  0.6645  9.32$  18.17$  10.17$
  Q  0.6645  8.45$  16.89$  10.59$
  Q  -1.3290  8.62$  17.72$  10.43$
  Q  0.6645  5.92$  5.54$  17.06$
  Q  0.6645  6.12$  6.99$  16.86$
  Q  -1.3290  6$  6.23$  16.6$
  Q  0.6645  11.77$  19.29$  9.96$
  Q  0.6645  10.86$  19.09$  8.75$
  Q  -1.3290  11.22$  18.86$  9.49$
  Q  0.6645  11.72$  12.26$  2.75$
  Q  0.6645  12.38$  13.63$  2.43$
  Q  -1.3290  11.84$  13.12$  2.82$
  Q  0.6645  15.97$  2.58$  12.84$
  Q  0.6645  16.81$  2.75$  14.01$
  Q  -1.3290  16.16$  2.94$  13.55$
  Q  0.6645  7.56$  -0.19$  10.96$
  Q  0.6645  7.27$  1.29$  10.8$
  Q  -1.3290  7.3$  0.5$  10.54$
  Q  0.6645  5.93$  16.85$  19.68$
  Q  0.6645  6.31$  15.91$  18.6$
  Q  -1.3290  6.05$  16.08$  19.4$
  Q  0.6645  20.32$  12.21$  8.61$
  Q  0.6645  19.33$  13.28$  8.21$
  Q  -1.3290  20$  12.8$  8.12$
  Q  0.6645  5.63$  1.94$  16.61$
  Q  0.6645  6.33$  3.15$  15.81$
  Q  -1.3290  6.25$  2.5$  16.38$
  Q  0.6645  7.86$  5.51$  15.84$
  Q  0.6645  9.32$  5.24$  15.33$
  Q  -1.3290  8.6$  5.06$  15.75$
  Q  0.6645  6.54$  13.28$  13.81$
  Q  0.6645  7.71$  13.93$  14.41$
  Q  -1.3290  7.17$  13.82$  13.82$
  Q  0.6645  16.92$  8.45$  7.86$
  Q  0.6645  16.21$  7.29$  8.66$
  Q  -1.3290  16.34$  8.11$  8.43$
  Q  0.6645  10.29$  15.39$  22.21$
  Q  0.6645  10.17$  15.22$  20.71$
  Q  -1.3290  10.55$  15.17$  21.46$
  Q  0.6645  5.16$  17.41$  13.02$
  Q  0.6645  4.36$  18.09$  14.03$
  Q  -1.3290  4.56$  17.93$  13.24$
  Q  0.6645  1.27$  14.36$  7.51$
  Q  0.6645  -0.19$  14.46$  7.85$
  Q  -1.3290  0.56$  14.77$  7.72$
  Q  0.6645  18.73$  7.69$  16.15$
  Q  0.6645  20.07$  7.62$  15.21$
  Q  -1.3290  19.57$  7.87$  15.91$
  Q  0.6645  19.18$  13.1$  13.36$
  Q  0.6645  18.11$  14.18$  13.37$
  Q  -1.3290  18.54$  13.53$  13.67$
  Q  0.6645  2.5$  7.38$  6.07$
  Q  0.6645  1.29$  7.94$  6.78$
  Q  -1.3290  1.67$  7.4$  6.25$
  Q  0.6645  1.05$  9.88$  4.1$
  Q  0.6645  0.69$  11.28$  4.27$
  Q  -1.3290  1.19$  10.68$  4.01$
  Q  0.6645  10.2$  15.53$  2.78$
  Q  0.6645  11.03$  16.51$  2.2$
  Q  -1.3290  10.33$  16.15$  2.25$
  Q  0.6645  1.88$  14.19$  10.11$
  Q  0.6645  0.96$  14.69$  11.21$
  Q  -1.3290  1.62$  14.27$  10.88$
  Q  0.6645  5.01$  6.66$  6.67$
  Q  0.6645  4.8$  6.07$  5.29$
  Q  -1.3290  4.76$  6.69$  5.89$
  Q  0.6645  14.9$  20.78$  14.14$
  Q  0.6645  15.33$  19.73$  15.07$
  Q  -1.3290  15.46$  20.35$  14.57$
  Q  0.6645  9.33$  1.69$  19.07$
  Q  0.6645  8.89$  2.72$  18.04$
  Q  -1.3290  9.37$  2.08$  18.34$
  Q  0.6645  11.32$  5.99$  2.17$
  Q  0.6645  9.84$  6.1$  2.63$
  Q  -1.3290  10.58$  5.69$  2.46$
  Q  0.6645  4.77$  2.05$  6.43$
  Q  0.6645  4.72$  3.47$  6.88$
  Q  -1.3290  4.92$  2.86$  6.36$
  Q  0.6645  17.42$  12.43$  16.8$
  Q  0.6645  18.73$  13.06$  16.2$
  Q  -1.3290  18.25$  12.43$  16.54$
  Q  0.6645  15.86$  10.13$  9.17$
  Q  0.6645  15.14$  11.52$  9.12$
  Q  -1.3290  15.82$  10.98$  9.23$
  Q  0.6645  19.42$  7.84$  19.31$
  Q  0.6645  19.6$  8.35$  17.9$
  Q  -1.3290  19.46$  8.44$  18.71$
  Q  0.6645  16.73$  10.46$  20.29$
  Q  0.6645  17.71$  10.18$  19.15$
  Q  -1.3290  17.04$  10.58$  19.52$
  Q  0.6645  8.58$  7.82$  1.97$
  Q  0.6645  8.59$  7.36$  0.41$
  Q  -1.3290  8.38$  7.34$  1.26$
  Q  0.6645  15.44$  14.13$  5.6$
  Q  0.6645  14.04$  14.71$  5.34$
  Q  -1.3290  14.87$  14.62$  5.21$
  Q  0.6645  4.8$  20.22$  9.67$
  Q  0.6645  6.2$  20.64$  9.59$
  Q  -1.3290  5.51$  20.38$  9.28$
  Q  0.6645  1.33$  4.07$  14.3$
  Q  0.6645  2.48$  5.12$  13.91$
  Q  -1.3290  1.82$  4.59$  13.78$
  Q  0.6645  13.55$  13.25$  16.42$
  Q  0.6645  14.74$  12.81$  15.58$
  Q  -1.3290  14.07$  13.26$  15.76$
  Q  0.6645  13.49$  18.38$  4.72$
  Q  0.6645  13.58$  17.33$  5.75$
  Q  -1.3290  13.23$  17.7$  5.1$
  Q  0.6645  21.09$  10.53$  10.53$
  Q  0.6645  22.12$  11.14$  9.63$
  Q  -1.3290  21.37$  10.83$  9.8$
  Q  0.6645  11.24$  19.89$  12.55$
  Q  0.6645  9.81$  19.28$  12.65$
  Q  -1.3290  10.64$  19.33$  12.81$
  Q  0.6645  1.46$  8.91$  14.53$
  Q  0.6645  1.44$  9.22$  16.06$
  Q  -1.3290  1.8$  9.11$  15.26$
  Q  0.6645  12.95$  5.35$  8.05$
  Q  0.6645  11.8$  6.17$  8.78$
  Q  -1.3290  12.13$  5.53$  8.3$
  Q  0.6645  8.15$  4.79$  21.35$
  Q  0.6645  8.02$  6.01$  20.39$
  Q  -1.3290  7.75$  5.33$  20.8$
  Q  0.6645  7.81$  20.84$  13.4$
  Q  0.6645  7.26$  19.52$  12.6$
  Q  -1.3290  7.74$  20.25$  12.74$
  Q  0.6645  2$  12.34$  11.61$
  Q  0.6645  2.03$  11.67$  12.97$
  Q  -1.3290  2.03$  11.67$  12.11$
  Q  0.6645  6.56$  15.79$  4.98$
  Q  0.6645  5.05$  16.02$  4.78$
  Q  -1.3290  5.87$  16.16$  4.67$
  Q  0.6645  13.73$  19.97$  10.77$
  Q  0.6645  13.39$  21.34$  10.19$
  Q  -1.3290  13.24$  20.63$  10.59$
  Q  0.6645  11.88$  17.94$  17.44$
  Q  0.6645  13.43$  18.03$  17.39$
  Q  -1.3290  12.68$  17.64$  17.55$
  Q  0.6645  18.49$  17.61$  14.86$
  Q  0.6645  19.31$  18$  13.61$
  Q  -1.3290  18.91$  17.49$  14.14$
  Q  0.6645  13.19$  6.01$  1.93$
  Q  0.6645  13.37$  6.86$  3.2$
  Q  -1.3290  13.1$  6.7$  2.42$
  Q  0.6645  20.55$  15.44$  12.37$
  Q  0.6645  20.56$  15.75$  10.83$
  Q  -1.3290  20.68$  15.27$  11.52$
  Q  0.6645  13.65$  10.21$  5.72$
  Q  0.6645  13.46$  10.99$  4.36$
  Q  -1.3290  13.25$  10.46$  5.01$
  Q  0.6645  17.46$  17.67$  16.55$
  Q  0.6645  18.42$  18.53$  17.35$
  Q  -1.3290  17.93$  18.37$  16.69$
  Q  0.6645  6.98$  9.08$  0.87$
  Q  0.6645  6.92$  10.5$  1.47$
  Q  -1.3290  7.22$  9.88$  0.95$
  Q  0.6645  10.36$  17.76$  14.11$
  Q  0.6645  10.54$  16.71$  15.28$
  Q  -1.3290  10.3$  17.03$  14.52$
  Q  0.6645  8.58$  13.88$  19.81$
  Q  0.6645  8.87$  12.5$  20.48$
  Q  -1.3290  8.39$  13.14$  20.12$
  Q  0.6645  3.2$  18.47$  3.58$
  Q  0.6645  2.95$  17.16$  4.46$
  Q  -1.3290  2.8$  17.76$  3.86$
  Q  0.6645  3.75$  8.86$  8.58$
  Q  0.6645  3.88$  7.4$  8.98$
  Q  -1.3290  3.48$  8.1$  8.69$
  Q  0.6645  12.98$  11.94$  17.9$
  Q  0.6645  12.82$  13.39$  18.35$
  Q  -1.3290  12.61$  12.68$  17.97$
  Q  0.6645  15.21$  4.66$  8.19$
  Q  0.6645  14.77$  4.5$  6.63$
  Q  -1.3290  14.68$  4.47$  7.5$
  Q  0.6645  7.62$  10.35$  18.16$
  Q  0.6645  7.45$  11.54$  19.05$
  Q  -1.3290  7.26$  11.07$  18.42$
  Q  0.6645  8.92$  8.1$  19.54$
  Q  0.6645  10.09$  7.62$  20.47$
  Q  -1.3290  9.3$  7.72$  20.22$
  Q  0.6645  17.39$  15.76$  15.07$
  Q  0.6645  15.99$  15.89$  15.56$
  Q  -1.3290  16.83$  15.97$  15.62$
  Q  0.6645  2.69$  4.47$  6.89$
  Q  0.6645  2.53$  3.63$  8.08$
  Q  -1.3290  2.92$  4.2$  7.63$
  Q  0.6645  2.96$  16.78$  8.97$
  Q  0.6645  1.61$  16.65$  8.57$
  Q  -1.3290  2.18$  17.04$  8.97$
  Q  0.6645  12.38$  2.36$  14.31$
  Q  0.6645  12.17$  3.17$  13.09$
  Q  -1.3290  12.08$  2.49$  13.57$
  Q  0.6645  9.19$  3.17$  14.94$
  Q  0.6645  10.35$  2.52$  14.21$
  Q  -1.3290  9.56$  2.68$  14.31$
  Q  0.6645  20.55$  10.2$  15.43$
  Q  0.6645  19.74$  11.3$  14.93$
  Q  -1.3290  20.43$  10.89$  15.03$
  Q  0.6645  7.01$  18.15$  4.38$
  Q  0.6645  7.79$  19.29$  4.94$
  Q  -1.3290  7.14$  18.98$  4.53$
  Q  0.6645  16.93$  14.06$  19.1$
  Q  0.6645  16.8$  12.55$  19.64$
  Q  -1.3290  16.55$  13.36$  19.41$
  Q  0.6645  11.49$  6.57$  5.77$
  Q  0.6645  12.53$  7.67$  5.6$
  Q  -1.3290  11.75$  7.39$  5.68$
  Q  0.6645  2.13$  16.93$  15.13$
  Q  0.6645  3.27$  16.32$  14.53$
  Q  -1.3290  2.92$  16.78$  15.09$
  Q  0.6645  10.5$  9.77$  2.68$
  Q  0.6645  10.61$  10.63$  1.47$
  Q  -1.3290  10.81$  10.37$  2.23$
  Q  0.6645  18.59$  7.47$  6.56$
  Q  0.6645  19.27$  8.69$  7$
  Q  -1.3290  18.67$  8.3$  6.66$
  Q  0.6645  14.84$  3.45$  4.53$
  Q  0.6645  13.97$  4.69$  4.81$
  Q  -1.3290  14.68$  4.28$  4.77$
  Q  0.6645  15.25$  10.6$  18.41$
  Q  0.6645  14.01$  9.57$  18.27$
  Q  -1.3290  14.42$  10.35$  18.27$
  Q  0.6645  14.47$  8.98$  7.56$
  Q  0.6645  13.01$  9.57$  7.61$
  Q  -1.3290  13.85$  9.59$  7.46$
  Q  0.6645  15.07$  5.52$  18.42$
  Q  0.6645  16.18$  4.47$  17.9$
  Q  -1.3290  15.87$  5.17$  18.29$
  Q  0.6645  12.5$  7.92$  20.79$
  Q  0.6645  12.22$  7.65$  22.29$
  Q  -1.3290  12.06$  7.58$  21.44$
  Q  0.6645  21.03$  7.97$  13.3$
  Q  0.6645  22.07$  6.82$  13.8$
  Q  -1.3290  21.55$  7.51$  13.85$
  Q  0.6645  4.17$  6.58$  15.61$
  Q  0.6645  2.79$  7.47$  15.56$
  Q  -1.3290  3.3$  6.74$  15.63$
  Q  0.6645  12.62$  18.03$  12.28$
  Q  0.6645  14.18$  18.06$  11.93$
  Q  -1.3290  13.42$  17.75$  12.22$
  Q  0.6645  14.61$  3.92$  11.34$
  Q  0.6645  15.99$  3.98$  10.98$
  Q  -1.3290  15.26$  3.65$  10.99$
  Q  0.6645  6.57$  12.42$  4.11$
  Q  0.6645  7.8$  13.19$  4.31$
  Q  -1.3290  7.06$  12.94$  4.54$
  Q  0.6645  9.13$  10.34$  21.44$
  Q  0.6645  9.96$  10.65$  20.41$
  Q  -1.3290  9.74$  10.75$  21.14$
  Q  0.6645  5.07$  11.68$  13.16$
  Q  0.6645  4.51$  11.82$  14.58$
  Q  -1.3290  5.06$  11.98$  13.96$
  Q  0.6645  2.93$  14.72$  5.67$
  Q  0.6645  3.78$  15.58$  6.69$
  Q  -1.3290  3.44$  15.36$  5.94$
  Q  0.6645  3.39$  14.65$  15.83$
  Q  0.6645  4.03$  13.39$  16.11$
  Q  -1.3290  4$  14.19$  16.08$
  Q  0.6645  13.88$  2.78$  16.35$
  Q  0.6645  14.55$  2.51$  14.96$
  Q  -1.3290  14.05$  2.36$  15.64$
  Q  0.6645  12.58$  1.71$  18.23$
  Q  0.6645  11.34$  2.62$  17.96$
  Q  -1.3290  12.17$  2.45$  18.02$
  Q  0.6645  4.46$  21.04$  12.27$
  Q  0.6645  4.53$  19.57$  11.85$
  Q  -1.3290  4.5$  20.41$  11.73$
  Q  0.6645  20.38$  10.17$  12.83$
  Q  0.6645  19.43$  9.27$  11.89$
  Q  -1.3290  19.98$  9.43$  12.52$
  Q  0.6645  0.49$  11.66$  14.71$
  Q  0.6645  1.03$  13.05$  15.1$
  Q  -1.3290  0.95$  12.37$  14.6$
  Q  0.6645  5.34$  6.1$  9.59$
  Q  0.6645  4.04$  5.41$  9.19$
  Q  -1.3290  4.53$  5.92$  9.67$
  Q  0.6645  19.13$  10.77$  5.43$
  Q  0.6645  19.55$  11.84$  6.27$
  Q  -1.3290  19.41$  11.51$  5.53$
  Q  0.6645  17.8$  3.33$  11.86$
  Q  0.6645  18.52$  4.7$  11.82$
  Q  -1.3290  17.99$  4.09$  11.58$
  Q  0.6645  9.73$  13.47$  2.6$
  Q  0.6645  8.53$  14.34$  2$
  Q  -1.3290  8.99$  13.9$  2.62$
  Q  0.6645  18.25$  9.4$  13.8$
  Q  0.6645  17.23$  8.82$  13.04$
  Q  -1.3290  17.48$  9.2$  13.68$
  Q  0.6645  4.76$  1.5$  12.95$
  Q  0.6645  5.15$  2.31$  11.75$
  Q  -1.3290  4.61$  1.89$  12.25$
  Q  0.6645  13.76$  16.52$  7.63$
  Q  0.6645  15$  16.02$  6.66$
  Q  -1.3290  14.54$  16.57$  7.17$
  Q  0.6645  9.32$  13.16$  16.05$
  Q  0.6645  8.01$  12.47$  16.75$
  Q  -1.3290  8.54$  13.09$  16.42$
  Q  0.6645  7.53$  8.54$  14.84$
  Q  0.6645  8.82$  9.01$  15.71$
  Q  -1.3290  8$  8.87$  15.53$
  Q  0.6645  6.4$  12.74$  2.02$
  Q  0.6645  5.2$  11.86$  2.26$
  Q  -1.3290  6.01$  12.04$  2.3$
  Q  0.6645  6.99$  15.39$  13$
  Q  0.6645  7.32$  16.62$  13.63$
  Q  -1.3290  7$  16.24$  13.03$
  Q  0.6645  17.1$  9.41$  4.96$
  Q  0.6645  16.23$  10.37$  4.12$
  Q  -1.3290  16.86$  10.17$  4.67$
  Q  0.6645  4.58$  10.36$  4.92$
  Q  0.6645  5.24$  11.73$  5.16$
  Q  -1.3290  4.65$  11.15$  5.26$
  Q  0.6645  6.78$  3.24$  7.13$
  Q  0.6645  8.3$  3.4$  7.29$
  Q  -1.3290  7.5$  3.38$  7.56$
  Q  0.6645  5.14$  16.71$  8.06$
  Q  0.6645  4.89$  15.78$  9.14$
  Q  -1.3290  4.71$  16.14$  8.43$
  Q  0.6645  15.84$  12.27$  2.89$
  Q  0.6645  14.93$  12.69$  4.15$
  Q  -1.3290  15.26$  12.15$  3.56$
  Q  0.6645  3.65$  7.45$  12.38$
  Q  0.6645  4.27$  6.17$  11.9$
  Q  -1.3290  4.11$  6.78$  12.45$
  Q  0.6645  4.34$  15.62$  1.75$
  Q  0.6645  5.45$  16.34$  2.75$
  Q  -1.3290  4.99$  16.16$  2.02$
  Q  0.6645  21.25$  9.11$  8.55$
  Q  0.6645  21.36$  7.66$  8.41$
  Q  -1.3290  21.14$  8.43$  8.16$
  Q  0.6645  10.18$  5.8$  7.45$
  Q  0.6645  8.96$  5.59$  8.27$
  Q  -1.3290  9.38$  5.64$  7.57$
  Q  0.6645  15.05$  7.65$  4.35$
  Q  0.6645  14.01$  8.79$  4.58$
  Q  -1.3290  14.31$  8$  4.59$
  Q  0.6645  10.35$  16.98$  4.16$
  Q  0.6645  11.31$  16.87$  5.33$
  Q  -1.3290  10.57$  16.84$  4.95$
  Q  0.6645  3.79$  11.11$  16.43$
  Q  0.6645  2.66$  11.09$  15.38$
  Q  -1.3290  3.25$  11.44$  15.84$
  Q  0.6645  18.36$  16.09$  18.74$
  Q  0.6645  17.53$  15.83$  17.46$
  Q  -1.3290  17.65$  15.95$  18.28$
  Q  0.6645  4.19$  12.1$  19.06$
  Q  0.6645  5.2$  11.03$  18.43$
  Q  -1.3290  4.47$  11.31$  18.83$
  Q  0.6645  7.38$  5.59$  2.2$
  Q  0.6645  7.54$  5.52$  3.68$
  Q  -1.3290  7.32$  5.21$  2.92$
  Q  0.6645  2.83$  17.74$  11.9$
  Q  0.6645  1.54$  17.52$  11.14$
  Q  -1.3290  2.03$  17.79$  11.78$
  Q  0.6645  15.9$  12.15$  7.13$
  Q  0.6645  16.36$  11.72$  5.66$
  Q  -1.3290  16.13$  12.24$  6.3$
  Q  0.6645  10.84$  7.92$  17.09$
  Q  0.6645  10.76$  6.38$  17.36$
  Q  -1.3290  10.58$  7.11$  16.97$
  Q  0.6645  14.89$  12.64$  20.4$
  Q  0.6645  14.11$  11.29$  20.28$
  Q  -1.3290  14.25$  12.08$  20.59$
  Q  0.6645  13.12$  3.33$  8.34$
  Q  0.6645  12.86$  1.83$  8.16$
  Q  -1.3290  12.74$  2.56$  8.49$
  Q  0.6645  19.87$  16.78$  8.95$
  Q  0.6645  21.06$  17.88$  9.05$
  Q  -1.3290  20.57$  17.24$  9.29$
  Q  0.6645  13.76$  15.91$  2.07$
  Q  0.6645  13.28$  16.78$  3.22$
  Q  -1.3290  13.27$  16.49$  2.42$
  Q  0.6645  11.03$  3.21$  9.38$
  Q  0.6645  9.69$  2.44$  9.26$
  Q  -1.3290  10.19$  3.08$  9.44$
  Q  0.6645  5.26$  5.04$  13.87$
  Q  0.6645  4.72$  3.6$  13.53$
  Q  -1.3290  5.17$  4.2$  13.95$
  Q  0.6645  6.66$  8.7$  18.17$
  Q  0.6645  7.72$  8.36$  17.19$
  Q  -1.3290  7.45$  8.46$  17.95$
  Q  0.6645  18.63$  5.52$  16.14$
  Q  0.6645  20.03$  5.24$  15.68$
  Q  -1.3290  19.26$  5.02$  15.9$
  Q  0.6645  20.71$  12.28$  19.06$
  Q  0.6645  19.75$  11.97$  17.78$
  Q  -1.3290  20.43$  11.88$  18.33$
  Q  0.6645  17.23$  8.64$  10.5$
  Q  0.6645  17.96$  9.94$  10.16$
  Q  -1.3290  17.82$  9.24$  10.58$
  Q  0.6645  5.84$  9.39$  16.09$
  Q  0.6645  4.33$  9.25$  16.15$
  Q  -1.3290  5.1$  9.29$  16.48$
  Q  0.6645  7.3$  16.9$  15.94$
  Q  0.6645  8.6$  17.73$  15.28$
  Q  -1.3290  7.73$  17.51$  15.48$
  Q  0.6645  2.63$  12.43$  5.41$
  Q  0.6645  1.31$  13$  5.35$
  Q  -1.3290  2.07$  12.96$  5.66$
  Q  0.6645  6.84$  3.3$  9.94$
  Q  0.6645  7.44$  3.68$  11.21$
  Q  -1.3290  6.83$  3.36$  10.74$
  Q  0.6645  17.61$  17.79$  8.59$
  Q  0.6645  16.17$  17.97$  8.06$
  Q  -1.3290  16.87$  18.23$  8.46$
*
