! NoMOPrint PrintBasis #MINIPRINT SMALLPRINT LARGEPRINT
! ALLPOP XYZFILE
#! BP86 3-21G   TightSCF
! ENGRAD
! B3LYP NormalPNO PModel #DecontractAux
#! VerySlowConv 
 %maxcore 5000
 %scf  maxiter   500  end 

%pal
    nprocs 32
end

%basis
    NewGTO O    # New basis for oxygen
        "aug-cc-pVTZ"
    end
    NewGTO C    # New basis for carbon
        "aug-cc-pVTZ"
    end
    NewGTO H    # New basis for hydrogen
        "cc-pVTZ"
    end
end

* xyz 0   1
  C  11.88  11.68  11.44  #1
  H  12.12  12.29  10.59  #2
  H  12  10.53  11.2  #3
  C  10.44  11.9  11.85  #4
  H  10.19  11.03  12.47  #5
  H  10.26  12.75  12.5  #6
  C  9.47  11.89  10.64  #7
  H  9.85  12.49  9.8  #8
  H  8.63  12.5  10.9  #9
  C  8.92  10.55  10.2  #10
  H  8.07  10.58  9.48  #11
  H  8.42  10.02  11.04  #12
  O  9.99  9.79  9.56  #13
  H  9.48  8.97  9.16  #14
  O  12.69  12.06  12.56  #15
  H  13.65  12.03  12.29  #16
  O  12.75  10.03  8.93  #17
  H  11.85  9.75  9.21  #18
  H  13.4  9.63  9.56  #19
  O  7.24  10.54  13.97  #20
  H  7.77  9.82  13.65  #21
  H  6.55  10.88  13.34  #22
  O  13.37  13.64  8.53  #23
  H  13.85  14.05  7.77  #24
  H  12.63  13.14  8.17  #25
  O  8.65  7.96  7.95  #26
  H  8.05  8.53  7.48  #27
  H  8.28  7.4  8.67  #28
  O  8.52  12.81  14.85  #29
  H  8.01  11.96  14.63  #30
  H  8.18  13.45  14.21  #31
  O  8.49  12.86  17.67  #32
  H  8.37  12.88  16.75  #33
  H  9.33  13.26  17.84  #34
  O  5.93  8.48  11.09  #35
  H  5.34  9.24  11  #36
  H  5.86  8.12  11.97  #37
  O  12.66  15.19  10.6  #38
  H  13.01  14.68  9.88  #39
  H  11.76  15.23  10.31  #40
  O  15.18  14.23  6.48  #41
  H  14.56  13.7  5.96  #42
  H  15.38  15.05  5.97  #43
  O  6.19  6.56  9.1  #44
  H  6.15  6.86  8.2  #45
  H  5.91  7.3  9.74  #46
  O  7.17  10.07  6.14  #47
  H  7.33  9.67  5.29  #48
  H  7.82  10.81  6.21  #49
  O  10.78  7.19  6.29  #50
  H  10.1  7.67  6.79  #51
  H  11.47  7.09  6.91  #52
  O  9.35  9.95  16.35  #53
  H  9.35  10.44  17.16  #54
  H  8.42  9.67  16.16  #55
  O  11.73  7.3  10.51  #56
  H  10.98  7.75  10.84  #57
  H  12.43  7.6  11.08  #58
  O  15.39  9.46  10.57  #59
  H  15.81  10.13  11.15  #60
  H  15.14  8.69  11.12  #61
  O  15.76  14.43  9.79  #62
  H  15.65  14.55  10.72  #63
  H  15.2  13.65  9.63  #64
  O  5.72  12.77  8  #65
  H  4.81  13.02  7.68  #66
  H  5.78  11.82  8.2  #67
  O  9.16  14.62  7.82  #68
  H  9.04  15.49  7.4  #69
  H  9.54  13.97  7.19  #70
  O  8.36  14.79  12.53  #71
  H  7.62  14.61  11.94  #72
  H  8.33  15.67  12.91  #73
  O  15.39  11.75  12.38  #74
  H  15.19  11.67  13.35  #75
  H  15.51  12.74  12.27  #76
  O  10.01  15.45  10.15  #77
  H  9.49  15.04  10.91  #78
  H  9.86  14.89  9.38  #79
  O  9.06  8.47  12.85  #80
  H  8.72  7.91  12.13  #81
  H  9.66  7.87  13.34  #82
  O  11.6  11.89  7.26  #83
  H  12.06  12.09  6.44  #84
  H  11.97  11.07  7.65  #85
  O  8.55  6.22  10.97  #86
  H  7.67  6.14  10.54  #87
  H  9.06  5.63  10.43  #88
  O  12.62  8.76  13.12  #89
  H  11.72  8.63  13.48  #90
  H  12.79  9.66  12.93  #91
  O  12.64  16.78  7.47  #92
  H  13.48  17  7.86  #93
  H  12.31  15.97  7.81  #94
  O  6.31  13.89  10.91  #95
  H  5.92  13.11  11.43  #96
  H  6.25  13.67  9.97  #97
  O  11.33  12.31  14.96  #98
  H  11.66  12.17  14.05  #99
  H  10.42  12.31  14.88  #100
  O  5.18  11.69  12.37  #101
  H  4.61  12.06  13.07  #102
  H  4.6  11.32  11.66  #103
  O  15.79  11.43  8.24  #104
  H  14.94  11.79  7.96  #105
  H  15.51  10.63  8.61  #106
  O  5.3  9.62  8.13  #107
  H  4.54  9.16  7.78  #108
  H  5.97  9.78  7.45  #109
  Q  0.6645  18.86$  8.48$  12.2$
  Q  0.6645  17.54$  7.72$  12.78$
  Q  -1.3290  18.33$  7.8$  12.43$
  Q  0.6645  8.18$  3.11$  8.31$
  Q  0.6645  6.94$  2.85$  9.04$
  Q  -1.3290  7.65$  2.64$  8.68$
  Q  0.6645  19.71$  10.45$  4.11$
  Q  0.6645  18.9$  11.07$  5.22$
  Q  -1.3290  19.57$  10.98$  4.73$
  Q  0.6645  7.89$  6.01$  18.76$
  Q  0.6645  8.43$  4.6$  18.81$
  Q  -1.3290  8.21$  5.33$  18.43$
  Q  0.6645  21.19$  6.48$  7.23$
  Q  0.6645  22.27$  7.12$  8.07$
  Q  -1.3290  21.47$  6.92$  7.87$
  Q  0.6645  11.9$  5.33$  18.97$
  Q  0.6645  10.49$  5.6$  18.56$
  Q  -1.3290  11.09$  5.16$  18.92$
  Q  0.6645  14.26$  8.41$  5.54$
  Q  0.6645  13.08$  8.9$  6.36$
  Q  -1.3290  13.7$  8.97$  5.82$
  Q  0.6645  9.19$  16.76$  5.51$
  Q  0.6645  9.6$  17.96$  6.36$
  Q  -1.3290  9.12$  17.25$  6.18$
  Q  0.6645  5.09$  4.75$  9.17$
  Q  0.6645  4.49$  3.34$  8.83$
  Q  -1.3290  5.11$  3.93$  9.03$
  Q  0.6645  20.66$  16.2$  14.02$
  Q  0.6645  22.07$  16.82$  13.9$
  Q  -1.3290  21.28$  16.73$  14.18$
  Q  0.6645  18.05$  6.69$  16.91$
  Q  0.6645  18.41$  7.79$  18.03$
  Q  -1.3290  17.97$  7.12$  17.68$
  Q  0.6645  8.78$  6.55$  3.73$
  Q  0.6645  7.23$  6.44$  3.85$
  Q  -1.3290  8.01$  6.69$  4.07$
  Q  0.6645  17.24$  13.86$  7.38$
  Q  0.6645  18.68$  13.86$  7.93$
  Q  -1.3290  18.05$  14.14$  7.47$
  Q  0.6645  7.35$  9.73$  2.98$
  Q  0.6645  7.25$  8.41$  3.59$
  Q  -1.3290  6.95$  9.13$  3.4$
  Q  0.6645  6.53$  18.04$  17.43$
  Q  0.6645  7.3$  18.64$  16.31$
  Q  -1.3290  6.82$  18.1$  16.66$
  Q  0.6645  18.27$  14.9$  16.14$
  Q  0.6645  17.78$  13.37$  15.82$
  Q  -1.3290  18.18$  14.14$  15.69$
  Q  0.6645  13.67$  18.98$  14.45$
  Q  0.6645  12.77$  18.58$  15.67$
  Q  -1.3290  13.46$  18.96$  15.27$
  Q  0.6645  13.2$  8.33$  15.14$
  Q  0.6645  13.69$  7.62$  16.52$
  Q  -1.3290  13.44$  8.25$  16$
  Q  0.6645  3.69$  8.48$  2.88$
  Q  0.6645  5.14$  8.42$  3.28$
  Q  -1.3290  4.37$  8.11$  3.18$
  Q  0.6645  6.65$  7.01$  14.44$
  Q  0.6645  5.38$  6.68$  13.6$
  Q  -1.3290  6.14$  7.03$  13.78$
  Q  0.6645  2.24$  17.13$  11.22$
  Q  0.6645  1.73$  16.75$  9.86$
  Q  -1.3290  2.25$  16.72$  10.5$
  Q  0.6645  8.65$  17.19$  19.69$
  Q  0.6645  8.3$  16.51$  21.11$
  Q  -1.3290  8.26$  17.1$  20.47$
  Q  0.6645  19.25$  14.95$  6.34$
  Q  0.6645  20.47$  15.4$  5.41$
  Q  -1.3290  19.74$  15.46$  5.84$
  Q  0.6645  4.43$  10.35$  9.5$
  Q  0.6645  3.27$  11.18$  10.07$
  Q  -1.3290  3.85$  10.6$  10.08$
  Q  0.6645  12.92$  13.07$  1.89$
  Q  0.6645  11.61$  13.53$  1.04$
  Q  -1.3290  12.2$  13.52$  1.68$
  Q  0.6645  15.57$  15.75$  2.86$
  Q  0.6645  15.47$  14.22$  3.06$
  Q  -1.3290  15.52$  15.06$  3.31$
  Q  0.6645  0$  8.33$  6.41$
  Q  0.6645  1.15$  9.23$  6.01$
  Q  -1.3290  0.69$  8.53$  6.01$
  Q  0.6645  6.9$  11.48$  22.33$
  Q  0.6645  6.77$  10.8$  20.92$
  Q  -1.3290  6.51$  11.06$  21.68$
  Q  0.6645  3.8$  10.64$  19.35$
  Q  0.6645  4.16$  10.47$  17.83$
  Q  -1.3290  3.69$  10.76$  18.5$
  Q  0.6645  17.02$  10.85$  6.86$
  Q  0.6645  17.39$  9.38$  6.24$
  Q  -1.3290  17.31$  10.26$  6.25$
  Q  0.6645  9.33$  19.9$  14.11$
  Q  0.6645  9.58$  18.8$  13.14$
  Q  -1.3290  9.57$  19.13$  13.9$
  Q  0.6645  8.91$  8.03$  18.5$
  Q  0.6645  8.38$  9.13$  19.54$
  Q  -1.3290  8.68$  8.34$  19.27$
  Q  0.6645  15.28$  6.05$  19.42$
  Q  0.6645  16$  7.02$  18.5$
  Q  -1.3290  15.62$  6.8$  19.22$
  Q  0.6645  16.6$  17.78$  15.96$
  Q  0.6645  15.08$  17.89$  15.52$
  Q  -1.3290  15.88$  17.51$  15.64$
  Q  0.6645  0.9$  10.81$  13.89$
  Q  0.6645  0.27$  11.5$  12.63$
  Q  -1.3290  0.53$  10.84$  13.1$
  Q  0.6645  10.44$  17.99$  10.83$
  Q  0.6645  9.03$  17.7$  11.36$
  Q  -1.3290  9.72$  18.17$  11.24$
  Q  0.6645  14.86$  14.79$  12.67$
  Q  0.6645  16.49$  14.88$  12.61$
  Q  -1.3290  15.69$  14.52$  12.46$
  Q  0.6645  17.23$  8.4$  14.97$
  Q  0.6645  15.9$  7.59$  14.68$
  Q  -1.3290  16.45$  8.26$  14.68$
  Q  0.6645  14.31$  6.91$  12.4$
  Q  0.6645  15.12$  6.32$  11.3$
  Q  -1.3290  14.62$  6.88$  11.64$
  Q  0.6645  10.02$  11.97$  6.8$
  Q  0.6645  9.41$  12.52$  5.49$
  Q  -1.3290  9.37$  12.2$  6.27$
  Q  0.6645  15.24$  12.95$  20.4$
  Q  0.6645  15.47$  14.23$  21.33$
  Q  -1.3290  15.5$  13.39$  21.1$
  Q  0.6645  5.48$  4.22$  6.81$
  Q  0.6645  5.18$  4.74$  5.44$
  Q  -1.3290  5.6$  4.31$  5.99$
  Q  0.6645  18.92$  10.04$  19.1$
  Q  0.6645  19.93$  8.88$  19.34$
  Q  -1.3290  19.52$  9.47$  18.9$
  Q  0.6645  11.31$  3.02$  3.68$
  Q  0.6645  12.07$  2.51$  4.9$
  Q  -1.3290  11.85$  2.52$  4.1$
  Q  0.6645  17.31$  13.82$  20.28$
  Q  0.6645  18.83$  14.11$  20.62$
  Q  -1.3290  18.13$  14.03$  20.13$
  Q  0.6645  4.22$  14.53$  18.76$
  Q  0.6645  4.97$  15.98$  18.94$
  Q  -1.3290  4.6$  15.24$  19.18$
  Q  0.6645  3.14$  6.19$  16.13$
  Q  0.6645  1.71$  6.79$  16.05$
  Q  -1.3290  2.58$  6.78$  16$
  Q  0.6645  11.47$  6.78$  14.29$
  Q  0.6645  11.07$  7.31$  15.72$
  Q  -1.3290  11.01$  7.18$  14.87$
  Q  0.6645  19.73$  9.73$  10.23$
  Q  0.6645  20.1$  8.81$  8.91$
  Q  -1.3290  19.7$  9.41$  9.4$
  Q  0.6645  16.02$  5.83$  8.85$
  Q  0.6645  15.45$  4.58$  8.09$
  Q  -1.3290  15.5$  5.15$  8.73$
  Q  0.6645  6.53$  4.66$  12.39$
  Q  0.6645  5.5$  4$  13.32$
  Q  -1.3290  5.85$  4.15$  12.58$
  Q  0.6645  13.17$  10.1$  16.54$
  Q  0.6645  12.32$  11.28$  16.34$
  Q  -1.3290  13.01$  10.93$  16.59$
  Q  0.6645  15.64$  5.47$  13.48$
  Q  0.6645  14.85$  5.52$  14.79$
  Q  -1.3290  15.19$  5.84$  14.09$
  Q  0.6645  4.86$  4.15$  15.56$
  Q  0.6645  3.52$  3.86$  14.95$
  Q  -1.3290  4.25$  4.28$  15.01$
  Q  0.6645  12.5$  7$  8.83$
  Q  0.6645  13.6$  6.43$  8.16$
  Q  -1.3290  12.93$  6.83$  8.15$
  Q  0.6645  17.63$  18.77$  17.43$
  Q  0.6645  18.4$  17.55$  17.05$
  Q  -1.3290  18.07$  18.28$  16.93$
  Q  0.6645  10.09$  12.4$  21.39$
  Q  0.6645  10.83$  13.69$  20.83$
  Q  -1.3290  10.24$  13.23$  21.34$
  Q  0.6645  13.52$  16.53$  5.71$
  Q  0.6645  14.11$  15.94$  4.41$
  Q  -1.3290  13.68$  16.53$  4.88$
  Q  0.6645  11.64$  6.2$  4.99$
  Q  0.6645  11.79$  5.21$  3.76$
  Q  -1.3290  12.08$  5.7$  4.42$
  Q  0.6645  5.51$  10.63$  4.31$
  Q  0.6645  5.64$  12.04$  4.8$
  Q  -1.3290  5.29$  11.43$  4.37$
  Q  0.6645  7.93$  15.92$  9.78$
  Q  0.6645  6.65$  16.06$  10.69$
  Q  -1.3290  7.28$  16.31$  10.15$
  Q  0.6645  4.01$  19.12$  11.22$
  Q  0.6645  3.69$  19.94$  12.44$
  Q  -1.3290  3.55$  19.36$  11.86$
  Q  0.6645  15.41$  3.6$  10.51$
  Q  0.6645  15.88$  2.17$  10.97$
  Q  -1.3290  15.34$  2.83$  10.89$
  Q  0.6645  2.69$  16.9$  13.54$
  Q  0.6645  2.24$  18.22$  13.05$
  Q  -1.3290  2.16$  17.4$  13.15$
  Q  0.6645  11.59$  18.38$  7.13$
  Q  0.6645  11.34$  19.73$  6.57$
  Q  -1.3290  11.11$  18.96$  6.78$
  Q  0.6645  17.7$  11.41$  17.37$
  Q  0.6645  17.1$  11.29$  15.86$
  Q  -1.3290  17.7$  11.37$  16.51$
  Q  0.6645  10.42$  8.42$  17.09$
  Q  0.6645  11.33$  7.8$  18.06$
  Q  -1.3290  10.73$  7.77$  17.5$
  Q  0.6645  8.04$  8.67$  1.04$
  Q  0.6645  9.44$  8.31$  1.67$
  Q  -1.3290  8.82$  8.81$  1.4$
  Q  0.6645  1.28$  10.58$  16.33$
  Q  0.6645  2.28$  9.69$  15.51$
  Q  -1.3290  1.79$  10.35$  15.68$
  Q  0.6645  7.22$  16.36$  4.26$
  Q  0.6645  6.02$  15.64$  3.68$
  Q  -1.3290  6.47$  15.98$  4.3$
  Q  0.6645  17.14$  7.55$  7.15$
  Q  0.6645  17.96$  7.09$  5.87$
  Q  -1.3290  17.46$  7.59$  6.36$
  Q  0.6645  3.4$  17.78$  6.86$
  Q  0.6645  3.65$  18.22$  5.35$
  Q  -1.3290  3.22$  17.92$  6.03$
  Q  0.6645  5.35$  14.23$  16.15$
  Q  0.6645  4.32$  13.22$  15.49$
  Q  -1.3290  4.59$  13.88$  15.98$
  Q  0.6645  2.6$  9.26$  11.11$
  Q  0.6645  1.26$  9.69$  11.7$
  Q  -1.3290  1.76$  9.24$  11.22$
  Q  0.6645  7.02$  18.09$  12.81$
  Q  0.6645  7.17$  17.58$  14.29$
  Q  -1.3290  6.91$  17.53$  13.46$
  Q  0.6645  3.03$  6.9$  8.19$
  Q  0.6645  2.45$  8.34$  7.6$
  Q  -1.3290  3.02$  7.65$  7.71$
  Q  0.6645  7.69$  18.8$  8.88$
  Q  0.6645  7.65$  20.35$  8.43$
  Q  -1.3290  7.55$  19.66$  8.97$
  Q  0.6645  11.68$  15.88$  4.81$
  Q  0.6645  10.34$  15.69$  3.97$
  Q  -1.3290  10.98$  15.51$  4.54$
  Q  0.6645  17.95$  17.91$  6.32$
  Q  0.6645  18.22$  16.53$  6.81$
  Q  -1.3290  17.89$  17.29$  6.87$
  Q  0.6645  11.56$  16.69$  15.41$
  Q  0.6645  10.73$  17.95$  15.25$
  Q  -1.3290  11.25$  17.45$  15.63$
  Q  0.6645  2.95$  11.68$  14.97$
  Q  0.6645  2.85$  12.67$  13.76$
  Q  -1.3290  3.27$  12.23$  14.39$
  Q  0.6645  15.45$  6.35$  4.9$
  Q  0.6645  13.85$  6.24$  4.65$
  Q  -1.3290  14.66$  6.56$  4.59$
  Q  0.6645  14.83$  16.1$  18.42$
  Q  0.6645  15.33$  16.04$  17.02$
  Q  -1.3290  15.06$  15.71$  17.75$
  Q  0.6645  13.31$  4.96$  13.39$
  Q  0.6645  11.83$  4.55$  13$
  Q  -1.3290  12.47$  5.01$  13.32$
  Q  0.6645  6.33$  2.21$  11.72$
  Q  0.6645  6$  1.01$  10.8$
  Q  -1.3290  6.45$  1.43$  11.41$
  Q  0.6645  2.49$  20.21$  7.82$
  Q  0.6645  3.64$  19.45$  8.47$
  Q  -1.3290  3.13$  20.11$  8.38$
  Q  0.6645  13.99$  2.57$  13.91$
  Q  0.6645  14.62$  3.22$  12.69$
  Q  -1.3290  14.48$  3.15$  13.52$
  Q  0.6645  10.7$  4.47$  9.38$
  Q  0.6645  11.33$  5.39$  10.39$
  Q  -1.3290  10.92$  4.67$  10.13$
  Q  0.6645  12.46$  17.49$  9.65$
  Q  0.6645  12.77$  18.39$  10.98$
  Q  -1.3290  12.41$  18.15$  10.21$
  Q  0.6645  3.42$  15.83$  6.15$
  Q  0.6645  4.24$  14.75$  5.39$
  Q  -1.3290  3.77$  15.04$  6.02$
  Q  0.6645  12.01$  2.63$  10.01$
  Q  0.6645  13.46$  2.28$  10.54$
  Q  -1.3290  12.68$  2.14$  10.13$
  Q  0.6645  11.07$  6.56$  1.06$
  Q  0.6645  11.68$  6.65$  2.51$
  Q  -1.3290  11.08$  6.63$  1.92$
  Q  0.6645  7.3$  21.86$  14.7$
  Q  0.6645  6.5$  20.59$  14.49$
  Q  -1.3290  7.03$  21.1$  14.93$
  Q  0.6645  3.67$  17.33$  9.33$
  Q  0.6645  4.99$  17.6$  8.5$
  Q  -1.3290  4.17$  17.7$  8.74$
  Q  0.6645  17.38$  11.9$  19.75$
  Q  0.6645  16.64$  10.63$  19.77$
  Q  -1.3290  17.12$  11.2$  19.39$
  Q  0.6645  10.96$  15.38$  16.95$
  Q  0.6645  10.33$  16.01$  18.24$
  Q  -1.3290  10.46$  15.42$  17.64$
  Q  0.6645  2.04$  4.78$  8.39$
  Q  0.6645  2.63$  5.13$  9.81$
  Q  -1.3290  2.34$  5.28$  9.03$
  Q  0.6645  20.01$  16.02$  17.89$
  Q  0.6645  18.83$  15.38$  18.62$
  Q  -1.3290  19.2$  15.88$  18.08$
  Q  0.6645  4.11$  6.53$  4.67$
  Q  0.6645  3.82$  6.57$  6.1$
  Q  -1.3290  3.94$  6.19$  5.39$
  Q  0.6645  1.36$  14.86$  13.35$
  Q  0.6645  0.66$  14.07$  14.47$
  Q  -1.3290  1.03$  14.16$  13.71$
  Q  0.6645  17.86$  4.76$  14.92$
  Q  0.6645  18.21$  6.34$  14.74$
  Q  -1.3290  18.11$  5.57$  15.16$
  Q  0.6645  10.14$  11.61$  2.62$
  Q  0.6645  10.54$  13.1$  3.12$
  Q  -1.3290  10.1$  12.34$  3.09$
  Q  0.6645  12.57$  2.67$  16.07$
  Q  0.6645  12.14$  3.71$  14.93$
  Q  -1.3290  12.12$  3.29$  15.67$
  Q  0.6645  5.98$  8.79$  16.78$
  Q  0.6645  7.13$  7.92$  16.59$
  Q  -1.3290  6.76$  8.61$  16.87$
  Q  0.6645  10.51$  3.21$  11.98$
  Q  0.6645  9.83$  3.67$  13.36$
  Q  -1.3290  10.41$  3.29$  12.83$
  Q  0.6645  13.17$  14.78$  16.08$
  Q  0.6645  12.07$  14.03$  15.42$
  Q  -1.3290  12.51$  14.71$  15.6$
  Q  0.6645  1.73$  9.36$  1.7$
  Q  0.6645  2.29$  10.38$  2.66$
  Q  -1.3290  2.36$  9.76$  2.07$
  Q  0.6645  16.04$  16.94$  7.85$
  Q  0.6645  15.26$  16.01$  8.88$
  Q  -1.3290  15.39$  16.69$  8.35$
  Q  0.6645  16.61$  10.39$  4.45$
  Q  0.6645  15.46$  9.78$  3.77$
  Q  -1.3290  16.1$  10.28$  3.79$
  Q  0.6645  17.47$  11.91$  12.32$
  Q  0.6645  18.33$  12.1$  11.15$
  Q  -1.3290  18.15$  12.17$  11.97$
  Q  0.6645  11.92$  1.91$  7.85$
  Q  0.6645  12.28$  3.28$  7.25$
  Q  -1.3290  12.29$  2.43$  7.26$
  Q  0.6645  7.96$  2.4$  14.77$
  Q  0.6645  6.98$  3.08$  13.75$
  Q  -1.3290  7.22$  2.71$  14.49$
  Q  0.6645  21.02$  10.78$  8.11$
  Q  0.6645  20.37$  11.45$  6.82$
  Q  -1.3290  20.72$  11.43$  7.61$
  Q  0.6645  10.55$  10.53$  19.75$
  Q  0.6645  11.9$  10.12$  18.92$
  Q  -1.3290  11.2$  10.6$  19.2$
  Q  0.6645  5.05$  16.56$  14.01$
  Q  0.6645  4.19$  15.57$  14.75$
  Q  -1.3290  4.39$  16.31$  14.45$
  Q  0.6645  12.88$  20.14$  4.46$
  Q  0.6645  13.01$  18.59$  4$
  Q  -1.3290  12.97$  19.47$  3.9$
  Q  0.6645  14.38$  18.75$  12.47$
  Q  0.6645  13.49$  17.52$  12.78$
  Q  -1.3290  13.68$  18.33$  12.71$
  Q  0.6645  21.57$  13.22$  8.5$
  Q  0.6645  20.87$  13.91$  9.83$
  Q  -1.3290  21.39$  13.8$  9.11$
  Q  0.6645  14.59$  5.86$  2.73$
  Q  0.6645  13.56$  5.05$  1.94$
  Q  -1.3290  14.12$  5.66$  2.05$
  Q  0.6645  7.8$  11.46$  18.65$
  Q  0.6645  7$  10.17$  18.52$
  Q  -1.3290  7.47$  10.75$  18.92$
  Q  0.6645  16.19$  19.49$  11$
  Q  0.6645  15.6$  18.28$  10.09$
  Q  -1.3290  15.75$  18.75$  10.82$
  Q  0.6645  6.17$  6.82$  1.75$
  Q  0.6645  7.16$  5.72$  1.69$
  Q  -1.3290  6.43$  6.03$  1.88$
  Q  0.6645  10.86$  18.1$  18.56$
  Q  0.6645  10.99$  17.37$  19.97$
  Q  -1.3290  10.66$  17.52$  19.16$
  Q  0.6645  11.23$  20.87$  10.89$
  Q  0.6645  9.87$  20.22$  10.57$
  Q  -1.3290  10.44$  20.88$  10.61$
  Q  0.6645  9.25$  4.27$  4.7$
  Q  0.6645  9.22$  4.06$  3.1$
  Q  -1.3290  9.57$  4.22$  3.86$
  Q  0.6645  20.15$  13.17$  12.04$
  Q  0.6645  21.51$  13.7$  12.51$
  Q  -1.3290  20.99$  13.22$  12.03$
  Q  0.6645  19.31$  12.04$  8.82$
  Q  0.6645  17.81$  11.95$  8.86$
  Q  -1.3290  18.55$  12.08$  9.21$
  Q  0.6645  15.92$  3.21$  5.94$
  Q  0.6645  16.52$  4.46$  5.6$
  Q  -1.3290  16.03$  3.97$  6.07$
  Q  0.6645  13.41$  9.3$  3.75$
  Q  0.6645  13.95$  8.17$  2.87$
  Q  -1.3290  13.74$  8.96$  3.07$
  Q  0.6645  11.68$  20.1$  13.83$
  Q  0.6645  12.51$  20.73$  12.72$
  Q  -1.3290  11.92$  20.73$  13.34$
  Q  0.6645  3.12$  15.17$  11.67$
  Q  0.6645  4.42$  14.29$  11.56$
  Q  -1.3290  3.7$  14.57$  11.92$
  Q  0.6645  18.85$  14.71$  13.76$
  Q  0.6645  18.57$  16.11$  13.12$
  Q  -1.3290  18.99$  15.37$  13.22$
  Q  0.6645  1.39$  12.93$  10.36$
  Q  0.6645  2.65$  13.22$  11.06$
  Q  -1.3290  2.17$  12.76$  10.57$
  Q  0.6645  13.81$  9.96$  -0.23$
  Q  0.6645  13.1$  9.49$  1.04$
  Q  -1.3290  13.14$  9.68$  0.23$
  Q  0.6645  6.86$  16.07$  16.7$
  Q  0.6645  7.55$  14.68$  16.81$
  Q  -1.3290  6.97$  15.23$  16.54$
  Q  0.6645  10.09$  3.02$  7.15$
  Q  0.6645  9.63$  4.5$  7$
  Q  -1.3290  10.04$  3.83$  7.37$
  Q  0.6645  4.25$  18.25$  15.65$
  Q  0.6645  3.05$  18.46$  16.51$
  Q  -1.3290  3.62$  18.69$  15.96$
  Q  0.6645  16.7$  17.54$  12.17$
  Q  0.6645  16.57$  17.11$  13.72$
  Q  -1.3290  16.92$  17.19$  12.92$
  Q  0.6645  6.65$  12.2$  3.02$
  Q  0.6645  8.23$  12.4$  2.75$
  Q  -1.3290  7.41$  12.13$  2.59$
  Q  0.6645  13.19$  13.21$  3.89$
  Q  0.6645  12.14$  13.82$  4.83$
  Q  -1.3290  12.75$  13.29$  4.6$
  Q  0.6645  4.31$  4.58$  11.59$
  Q  0.6645  3.4$  5.71$  12.04$
  Q  -1.3290  3.6$  5.01$  11.62$
  Q  0.6645  18.84$  16.76$  9.82$
  Q  0.6645  18.44$  17.58$  8.77$
  Q  -1.3290  18.78$  17.5$  9.49$
  Q  0.6645  14.41$  11.11$  15.44$
  Q  0.6645  15.27$  9.98$  14.91$
  Q  -1.3290  15.08$  10.79$  15$
  Q  0.6645  20.04$  8.98$  14.43$
  Q  0.6645  19.35$  9.4$  15.77$
  Q  -1.3290  19.73$  8.85$  15.21$
  Q  0.6645  6.77$  21.32$  6.86$
  Q  0.6645  7.57$  22.51$  7.66$
  Q  -1.3290  7.45$  21.76$  7.23$
  Q  0.6645  8.04$  0.63$  12.1$
  Q  0.6645  9.52$  0.01$  12.09$
  Q  -1.3290  8.73$  0.14$  12.41$
  Q  0.6645  20.13$  6.11$  9.38$
  Q  0.6645  19.47$  5.96$  10.85$
  Q  -1.3290  19.52$  6.05$  9.98$
  Q  0.6645  17.41$  5.82$  11.68$
  Q  0.6645  17.02$  4.42$  12.17$
  Q  -1.3290  16.92$  5.15$  11.78$
  Q  0.6645  11.37$  10.4$  -0.06$
  Q  0.6645  9.96$  9.96$  0.64$
  Q  -1.3290  10.55$  10.45$  0.24$
  Q  0.6645  1.3$  9.68$  9.18$
  Q  0.6645  1.57$  10.65$  8.09$
  Q  -1.3290  1.37$  9.89$  8.39$
  Q  0.6645  4.78$  20.43$  6.3$
  Q  0.6645  5.52$  19.13$  6.77$
  Q  -1.3290  5.31$  19.76$  6.24$
  Q  0.6645  6.28$  3.78$  2.61$
  Q  0.6645  6.24$  3.26$  4.02$
  Q  -1.3290  6.32$  3.18$  3.18$
  Q  0.6645  13.63$  4.3$  16.3$
  Q  0.6645  14.96$  4.77$  16.94$
  Q  -1.3290  14.27$  4.86$  16.46$
  Q  0.6645  3.96$  5.85$  18.32$
  Q  0.6645  3.38$  7.37$  18.27$
  Q  -1.3290  3.96$  6.74$  18.28$
  Q  0.6645  12.98$  15.44$  12.36$
  Q  0.6645  13.19$  15.47$  13.87$
  Q  -1.3290  13.4$  15.63$  13.07$
  Q  0.6645  6.93$  19.89$  10.96$
  Q  0.6645  7.38$  20.43$  12.19$
  Q  -1.3290  6.94$  19.89$  11.75$
  Q  0.6645  7.26$  17.29$  6.83$
  Q  0.6645  6.07$  16.73$  6.19$
  Q  -1.3290  6.47$  17.16$  6.8$
  Q  0.6645  3.99$  8.18$  16.05$
  Q  0.6645  4.68$  9.35$  15.09$
  Q  -1.3290  4.42$  8.96$  15.83$
  Q  0.6645  17.74$  6.88$  9.24$
  Q  0.6645  16.79$  7.93$  9.77$
  Q  -1.3290  17.07$  7.38$  9.23$
  Q  0.6645  7.49$  5.11$  6.11$
  Q  0.6645  8.61$  6.1$  5.96$
  Q  -1.3290  8.29$  5.34$  6.17$
  Q  0.6645  8.52$  5.57$  12.92$
  Q  0.6645  8.03$  4.94$  14.25$
  Q  -1.3290  8.27$  4.94$  13.43$
  Q  0.6645  0.66$  5.64$  10.48$
  Q  0.6645  0.4$  7.06$  11.12$
  Q  -1.3290  0.36$  6.22$  11.05$
  Q  0.6645  3.16$  13.87$  17.26$
  Q  0.6645  2.93$  12.54$  17.98$
  Q  -1.3290  2.77$  13.38$  17.8$
  Q  0.6645  13.11$  19.54$  8.99$
  Q  0.6645  13.97$  20.79$  8.67$
  Q  -1.3290  13.58$  20.05$  8.48$
  Q  0.6645  8.25$  5.99$  16.54$
  Q  0.6645  9.02$  6.68$  15.41$
  Q  -1.3290  8.35$  6.33$  15.78$
  Q  0.6645  13.65$  7.77$  19.2$
  Q  0.6645  12.54$  8.17$  20.32$
  Q  -1.3290  12.86$  8$  19.5$
  Q  0.6645  15.24$  12.55$  1.41$
  Q  0.6645  15.08$  11.85$  2.69$
  Q  -1.3290  14.98$  12.49$  2.19$
  Q  0.6645  2.83$  11.96$  4.09$
  Q  0.6645  1.49$  12.5$  4.4$
  Q  -1.3290  2.04$  12.17$  3.89$
  Q  0.6645  10.33$  0.35$  8.68$
  Q  0.6645  9.18$  1.27$  8.48$
  Q  -1.3290  9.94$  0.98$  8.34$
  Q  0.6645  20.49$  13.61$  16.08$
  Q  0.6645  21.57$  13.11$  16.98$
  Q  -1.3290  21.24$  13.62$  16.43$
  Q  0.6645  6.98$  14$  5.32$
  Q  0.6645  6.62$  13.08$  6.57$
  Q  -1.3290  6.59$  13.37$  5.71$
  Q  0.6645  3.04$  3.27$  12.16$
  Q  0.6645  2.34$  2.25$  13.17$
  Q  -1.3290  2.68$  2.54$  12.41$
  Q  0.6645  11.71$  14.57$  19.18$
  Q  0.6645  12.82$  13.72$  19.67$
  Q  -1.3290  12.14$  14.2$  19.76$
  Q  0.6645  2.56$  7.76$  12.34$
  Q  0.6645  2.7$  7.34$  13.82$
  Q  -1.3290  2.94$  7.41$  13.01$
  Q  0.6645  8.56$  15.8$  2.31$
  Q  0.6645  9.09$  17.13$  2.74$
  Q  -1.3290  8.82$  16.36$  2.87$
  Q  0.6645  20.77$  9.98$  12.62$
  Q  0.6645  19.31$  10.69$  12.54$
  Q  -1.3290  19.89$  10.06$  12.47$
  Q  0.6645  6.55$  4.49$  17.63$
  Q  0.6645  6.66$  3.68$  16.26$
  Q  -1.3290  6.32$  4.24$  16.86$
  Q  0.6645  2.53$  13.08$  8.55$
  Q  0.6645  2.38$  13.45$  7.14$
  Q  -1.3290  2.35$  12.93$  7.76$
  Q  0.6645  18.15$  14.56$  9.82$
  Q  0.6645  18.92$  15.05$  11.16$
  Q  -1.3290  18.78$  14.9$  10.31$
  Q  0.6645  14.43$  12.3$  18.21$
  Q  0.6645  14.97$  13.78$  18.45$
  Q  -1.3290  14.63$  13.01$  18.67$
*
