! NoMOPrint PrintBasis #MINIPRINT SMALLPRINT LARGEPRINT
! ALLPOP XYZFILE
#! BP86 3-21G   TightSCF
! ENGRAD
! B3LYP NormalPNO PModel #DecontractAux
#! VerySlowConv 
 %maxcore 5000
 %scf  maxiter   500  end 

%pal
    nprocs 32
end

%basis
    NewGTO O    # New basis for oxygen
        "aug-cc-pVTZ"
    end
    NewGTO C    # New basis for carbon
        "aug-cc-pVTZ"
    end
    NewGTO H    # New basis for hydrogen
        "cc-pVTZ"
    end
end

* xyz 0   1
  C  9.6  12.38  10.24  #1
  H  9.33  11.67  9.5  #2
  H  9.5  13.36  9.74  #3
  C  11.04  12.22  10.58  #4
  H  11.63  12.41  9.73  #5
  H  11.43  12.77  11.39  #6
  C  11.11  10.67  10.98  #7
  H  10.89  10.11  10.09  #8
  H  10.37  10.41  11.75  #9
  C  12.48  10.27  11.5  #10
  H  12.62  10.73  12.5  #11
  H  13.2  10.58  10.79  #12
  O  12.56  8.83  11.58  #13
  H  13.39  8.65  12.09  #14
  O  8.61  12.28  11.29  #15
  H  8.65  13.08  11.82  #16
  O  7.55  8.76  12.34  #17
  H  8.21  8.45  11.68  #18
  H  7.41  8.02  12.99  #19
  O  7.86  14.54  13.05  #20
  H  7.25  15.03  12.41  #21
  H  8.74  14.96  13.08  #22
  O  8.72  14.54  7.04  #23
  H  8.43  14.26  6.15  #24
  H  7.89  14.4  7.52  #25
  O  6.43  11.31  8.45  #26
  H  7.3  11  8.05  #27
  H  6.42  10.75  9.28  #28
  O  13.06  15.4  11.62  #29
  H  12.3  15.44  12.2  #30
  H  13.84  15.63  12.15  #31
  O  6.42  15.42  10.96  #32
  H  6.93  16.19  10.66  #33
  H  6.47  14.96  10.1  #34
  O  14.88  9.08  13.74  #35
  H  14.47  9.16  14.59  #36
  H  15.48  9.8  13.55  #37
  O  7.03  6.82  14.38  #38
  H  7.6  7.14  15.12  #39
  H  7.41  6.04  13.97  #40
  O  8.05  11.46  14.53  #41
  H  7.83  12.34  14.85  #42
  H  7.43  11.27  13.77  #43
  O  10.59  15.16  13.28  #44
  H  10.6  15.97  13.89  #45
  H  10.67  14.35  13.83  #46
  O  13.98  17.74  14.51  #47
  H  13.5  18.58  14.29  #48
  H  14.15  17.29  13.65  #49
  O  15.55  10.63  9.77  #50
  H  15.2  11.4  10.26  #51
  H  16.46  10.66  9.54  #52
  O  8.62  8.25  8.3  #53
  H  9.07  8.13  9.15  #54
  H  8.1  7.45  8.19  #55
  O  5.99  11.33  11.71  #56
  H  6.86  11.68  11.46  #57
  H  6.09  10.38  11.85  #58
  O  10.1  7.47  10.96  #59
  H  10.93  7.99  11.28  #60
  H  10.28  6.53  11.07  #61
  O  4.16  11.34  6.88  #62
  H  4.98  11.32  7.36  #63
  H  3.81  10.46  6.53  #64
  O  8.55  10.39  6.85  #65
  H  8.17  10.32  5.96  #66
  H  8.54  9.55  7.24  #67
  O  14.94  7.8  9.91  #68
  H  14.18  7.32  10.26  #69
  H  14.73  8.7  10.06  #70
  O  6.48  13.99  8.37  #71
  H  6.44  12.97  8.53  #72
  H  5.59  14.31  8.04  #73
  O  14.9  12.89  10.89  #74
  H  14.57  13.65  11.29  #75
  H  15.77  12.82  11.29  #76
  O  8.33  14.27  3.98  #77
  H  9.1  14.58  3.46  #78
  H  8.22  13.39  3.61  #79
  O  15.12  15.67  13.29  #80
  H  15.04  15.34  14.18  #81
  H  16.05  15.48  12.99  #82
  O  6.83  13.76  15.37  #83
  H  6.79  14.53  16.02  #84
  H  6.99  14.11  14.47  #85
  O  8.35  17.4  6.86  #86
  H  8.38  16.47  6.68  #87
  H  7.76  17.86  6.23  #88
  O  13.52  15.55  8.85  #89
  H  13.57  15.51  9.85  #90
  H  14.23  14.99  8.53  #91
  O  10.68  16.09  8.73  #92
  H  11.56  15.78  8.75  #93
  H  10.11  15.29  8.57  #94
  Q  0.6645  17.79$  16.74$  12.67$
  Q  0.6645  18.52$  15.41$  12.23$
  Q  -1.3290  17.87$  15.91$  12.54$
  Q  0.6645  16.67$  15.8$  16.31$
  Q  0.6645  15.5$  14.93$  16.88$
  Q  -1.3290  16.16$  15.12$  16.37$
  Q  0.6645  5.83$  16.34$  4.28$
  Q  0.6645  7.09$  15.52$  3.9$
  Q  -1.3290  6.57$  16.17$  3.84$
  Q  0.6645  12.6$  20.18$  10.15$
  Q  0.6645  12.63$  21.16$  11.38$
  Q  -1.3290  12.79$  20.4$  10.95$
  Q  0.6645  3.73$  15.4$  3.83$
  Q  0.6645  2.72$  14.35$  3.34$
  Q  -1.3290  3.47$  14.68$  3.44$
  Q  0.6645  12.56$  8.45$  3.81$
  Q  0.6645  13.74$  8.97$  4.74$
  Q  -1.3290  12.97$  8.66$  4.54$
  Q  0.6645  20.06$  11.86$  14.2$
  Q  0.6645  21.6$  11.94$  13.67$
  Q  -1.3290  20.74$  12.02$  13.63$
  Q  0.6645  16.01$  -0.06$  11.86$
  Q  0.6645  17.14$  0.83$  11.5$
  Q  -1.3290  16.36$  0.68$  11.78$
  Q  0.6645  14.53$  15.16$  19.02$
  Q  0.6645  14.32$  13.91$  18.09$
  Q  -1.3290  14.23$  14.7$  18.35$
  Q  0.6645  19.72$  4.5$  11.5$
  Q  0.6645  19.59$  4.5$  10.04$
  Q  -1.3290  19.81$  4.14$  10.74$
  Q  0.6645  9.69$  5.52$  19.28$
  Q  0.6645  10.43$  5.68$  20.64$
  Q  -1.3290  9.76$  5.63$  20.12$
  Q  0.6645  20.83$  4.88$  13.95$
  Q  0.6645  21.63$  3.63$  14.21$
  Q  -1.3290  21.19$  4.3$  14.42$
  Q  0.6645  1.79$  13.47$  7.74$
  Q  0.6645  3.09$  12.94$  7.23$
  Q  -1.3290  2.57$  13.54$  7.41$
  Q  0.6645  4.56$  12.23$  5.33$
  Q  0.6645  4.54$  13.28$  4.31$
  Q  -1.3290  4.78$  12.54$  4.57$
  Q  0.6645  11.35$  19.52$  5.12$
  Q  0.6645  12.28$  19.91$  4.04$
  Q  -1.3290  11.7$  20.07$  4.61$
  Q  0.6645  12.92$  5.15$  10.6$
  Q  0.6645  14.22$  4.98$  11.39$
  Q  -1.3290  13.57$  5.39$  11.08$
  Q  0.6645  12.21$  1.35$  12.77$
  Q  0.6645  13.16$  1.73$  11.62$
  Q  -1.3290  12.7$  1.23$  12.08$
  Q  0.6645  20.38$  8.39$  9.95$
  Q  0.6645  19.85$  6.95$  9.48$
  Q  -1.3290  20.29$  7.69$  9.44$
  Q  0.6645  15.62$  12.32$  19.37$
  Q  0.6645  15.5$  13.35$  20.58$
  Q  -1.3290  15.72$  12.61$  20.17$
  Q  0.6645  3.19$  8.4$  5.77$
  Q  0.6645  1.85$  9.12$  6.28$
  Q  -1.3290  2.71$  8.89$  6.3$
  Q  0.6645  10.27$  3$  5.71$
  Q  0.6645  8.77$  3.25$  6.04$
  Q  -1.3290  9.52$  2.82$  6.04$
  Q  0.6645  4.2$  14.26$  17.82$
  Q  0.6645  3.37$  13.27$  16.9$
  Q  -1.3290  3.49$  13.94$  17.44$
  Q  0.6645  3.09$  6.64$  8.12$
  Q  0.6645  3.84$  5.76$  9.23$
  Q  -1.3290  3.75$  6.21$  8.51$
  Q  0.6645  8.7$  9.34$  15.79$
  Q  0.6645  9.04$  8.5$  16.94$
  Q  -1.3290  9.09$  8.7$  16.12$
  Q  0.6645  3.59$  15.14$  7.23$
  Q  0.6645  4.22$  16.38$  7.96$
  Q  -1.3290  4.22$  15.71$  7.43$
  Q  0.6645  20.78$  14.49$  11.77$
  Q  0.6645  19.89$  13.32$  12.26$
  Q  -1.3290  20.05$  14.05$  11.82$
  Q  0.6645  10.96$  8.86$  1.95$
  Q  0.6645  11.86$  7.72$  1.46$
  Q  -1.3290  11.64$  8.34$  1.97$
  Q  0.6645  10.13$  1.49$  11.21$
  Q  0.6645  10.84$  1.63$  9.84$
  Q  -1.3290  10.15$  1.59$  10.36$
  Q  0.6645  5.88$  0.88$  11.44$
  Q  0.6645  6.79$  2.19$  11.4$
  Q  -1.3290  6.11$  1.69$  11.59$
  Q  0.6645  17.28$  6.43$  11.46$
  Q  0.6645  16.59$  7.7$  11.12$
  Q  -1.3290  17.2$  7.25$  11.42$
  Q  0.6645  4.11$  13.16$  13.91$
  Q  0.6645  5.21$  13.23$  15.07$
  Q  -1.3290  4.44$  13.05$  14.73$
  Q  0.6645  17.24$  11.08$  5.79$
  Q  0.6645  18.82$  11.4$  5.47$
  Q  -1.3290  18.1$  10.94$  5.72$
  Q  0.6645  2.75$  5.92$  12.24$
  Q  0.6645  3.51$  4.72$  11.62$
  Q  -1.3290  3.44$  5.48$  12.01$
  Q  0.6645  18.92$  3.19$  14.71$
  Q  0.6645  18.62$  2.12$  13.86$
  Q  -1.3290  18.51$  2.87$  14.15$
  Q  0.6645  7.49$  11.09$  2.84$
  Q  0.6645  6.37$  11.93$  3.45$
  Q  -1.3290  7.08$  11.8$  3.01$
  Q  0.6645  16.12$  4.4$  13.41$
  Q  0.6645  16.09$  3.75$  14.68$
  Q  -1.3290  15.73$  4.13$  14.05$
  Q  0.6645  18.95$  10.14$  9.54$
  Q  0.6645  18.47$  10.45$  8.13$
  Q  -1.3290  18.42$  10.53$  8.96$
  Q  0.6645  6.16$  13.88$  18.47$
  Q  0.6645  6.38$  15.48$  18.69$
  Q  -1.3290  6.13$  14.72$  18.27$
  Q  0.6645  4.12$  9.99$  18.93$
  Q  0.6645  4.32$  11.53$  18.92$
  Q  -1.3290  3.97$  10.79$  18.67$
  Q  0.6645  -0.45$  13.85$  8.31$
  Q  0.6645  0.34$  12.54$  8.76$
  Q  -1.3290  0.01$  13.11$  8.2$
  Q  0.6645  4.8$  8.99$  15.32$
  Q  0.6645  5.28$  7.62$  14.59$
  Q  -1.3290  4.76$  8.17$  15.07$
  Q  0.6645  14.1$  8.56$  2.17$
  Q  0.6645  15.55$  8.85$  2.29$
  Q  -1.3290  14.86$  8.64$  1.9$
  Q  0.6645  9.9$  17.71$  15.53$
  Q  0.6645  11.03$  18.25$  14.7$
  Q  -1.3290  10.32$  17.82$  14.82$
  Q  0.6645  10.57$  14.89$  1.46$
  Q  0.6645  10.79$  15.89$  2.56$
  Q  -1.3290  10.61$  15.16$  2.26$
  Q  0.6645  1.73$  8.6$  13.1$
  Q  0.6645  3.15$  8.52$  13.9$
  Q  -1.3290  2.53$  8.82$  13.36$
  Q  0.6645  18.2$  9.97$  17.12$
  Q  0.6645  18.32$  10.14$  18.61$
  Q  -1.3290  18.16$  9.73$  17.92$
  Q  0.6645  6.54$  16.89$  14.81$
  Q  0.6645  7.6$  17.71$  14.06$
  Q  -1.3290  7.21$  17.42$  14.72$
  Q  0.6645  15.55$  7.64$  14.47$
  Q  0.6645  15.54$  6.15$  14.51$
  Q  -1.3290  15.73$  6.9$  14.79$
  Q  0.6645  15.27$  13.38$  2.28$
  Q  0.6645  14.83$  12.19$  1.67$
  Q  -1.3290  15.35$  12.6$  2.14$
  Q  0.6645  8.13$  13.17$  0.41$
  Q  0.6645  6.91$  12.65$  1.16$
  Q  -1.3290  7.32$  12.92$  0.47$
  Q  0.6645  14.61$  2.47$  7.71$
  Q  0.6645  15.92$  3.07$  8.24$
  Q  -1.3290  15.07$  3.02$  8.14$
  Q  0.6645  17.54$  16.93$  6.42$
  Q  0.6645  18.39$  15.73$  6.24$
  Q  -1.3290  17.83$  16.19$  6.63$
  Q  0.6645  16.03$  17.95$  9.67$
  Q  0.6645  15.33$  18.99$  8.96$
  Q  -1.3290  15.82$  18.73$  9.54$
  Q  0.6645  20.16$  10.16$  11.85$
  Q  0.6645  21.1$  10.56$  10.75$
  Q  -1.3290  20.51$  10.08$  11.08$
  Q  0.6645  13.97$  3.35$  14.83$
  Q  0.6645  13.24$  3.69$  16.06$
  Q  -1.3290  13.28$  3.39$  15.31$
  Q  0.6645  10.95$  6.08$  7.37$
  Q  0.6645  9.59$  6.63$  7.72$
  Q  -1.3290  10.16$  6.03$  7.64$
  Q  0.6645  13.09$  8.27$  16.22$
  Q  0.6645  14.23$  8.84$  17.06$
  Q  -1.3290  13.72$  8.82$  16.38$
  Q  0.6645  10.15$  10.25$  22.1$
  Q  0.6645  11.06$  10.84$  20.93$
  Q  -1.3290  10.86$  10.58$  21.76$
  Q  0.6645  21.19$  10.81$  5.87$
  Q  0.6645  21.24$  12.08$  6.81$
  Q  -1.3290  20.9$  11.5$  6.29$
  Q  0.6645  4.82$  16.29$  11.1$
  Q  0.6645  3.84$  16.85$  12.24$
  Q  -1.3290  4.09$  16.35$  11.57$
  Q  0.6645  8.06$  17.38$  16.48$
  Q  0.6645  8.94$  18$  17.61$
  Q  -1.3290  8.71$  17.41$  17.05$
  Q  0.6645  8.35$  3.94$  12.76$
  Q  0.6645  9.61$  4.66$  13.27$
  Q  -1.3290  8.81$  4.37$  13.33$
  Q  0.6645  16.3$  14.25$  8.54$
  Q  0.6645  16.63$  14.45$  7.08$
  Q  -1.3290  16.12$  14.37$  7.75$
  Q  0.6645  1.36$  10.81$  15.56$
  Q  0.6645  1.87$  10.14$  14.31$
  Q  -1.3290  1.4$  10.69$  14.73$
  Q  0.6645  15.04$  6.5$  8.46$
  Q  0.6645  14.79$  4.98$  8.11$
  Q  -1.3290  14.83$  5.82$  7.94$
  Q  0.6645  18.86$  5.66$  13.52$
  Q  0.6645  19.29$  6.6$  12.32$
  Q  -1.3290  19.32$  5.92$  12.83$
  Q  0.6645  4.68$  5.73$  17.66$
  Q  0.6645  4.21$  6.71$  16.58$
  Q  -1.3290  4.16$  6.29$  17.31$
  Q  0.6645  12.18$  4.5$  14.12$
  Q  0.6645  12.04$  5.42$  12.82$
  Q  -1.3290  11.81$  5.07$  13.58$
  Q  0.6645  13.24$  6.32$  6.8$
  Q  0.6645  12.42$  7.02$  5.66$
  Q  -1.3290  12.57$  6.43$  6.28$
  Q  0.6645  13.86$  17.28$  8.32$
  Q  0.6645  13.18$  18.6$  8.06$
  Q  -1.3290  13.67$  17.94$  7.88$
  Q  0.6645  17.79$  4.04$  11.56$
  Q  0.6645  16.31$  4.09$  11.03$
  Q  -1.3290  17.04$  4.38$  11.36$
  Q  0.6645  11$  14.71$  19.05$
  Q  0.6645  12.46$  14.53$  19.49$
  Q  -1.3290  11.63$  14.66$  19.6$
  Q  0.6645  3.97$  16.9$  15.23$
  Q  0.6645  4.37$  15.63$  15.9$
  Q  -1.3290  4.52$  16.36$  15.5$
  Q  0.6645  10.42$  9.89$  19.1$
  Q  0.6645  11.23$  11.08$  18.62$
  Q  -1.3290  10.59$  10.71$  19.06$
  Q  0.6645  11.04$  2.35$  16.82$
  Q  0.6645  12.54$  2.14$  17.34$
  Q  -1.3290  11.68$  2.13$  17.36$
  Q  0.6645  15.25$  11.18$  7.78$
  Q  0.6645  15.71$  12.5$  7.41$
  Q  -1.3290  15.56$  11.72$  7.27$
  Q  0.6645  10.48$  12.24$  14.55$
  Q  0.6645  10.5$  13.42$  15.73$
  Q  -1.3290  10.8$  12.87$  15.09$
  Q  0.6645  14.91$  16.72$  5.25$
  Q  0.6645  13.87$  15.86$  6.08$
  Q  -1.3290  14.37$  16.05$  5.42$
  Q  0.6645  4.16$  18.64$  13.5$
  Q  0.6645  2.63$  18.41$  13.73$
  Q  -1.3290  3.44$  18.17$  13.56$
  Q  0.6645  12.81$  3.21$  5.3$
  Q  0.6645  12.24$  4.58$  5.26$
  Q  -1.3290  12.29$  3.78$  5.05$
  Q  0.6645  17.15$  7.31$  6.36$
  Q  0.6645  15.81$  6.59$  6.18$
  Q  -1.3290  16.57$  6.92$  5.93$
  Q  0.6645  4.77$  7.41$  4.2$
  Q  0.6645  4.24$  8.82$  3.84$
  Q  -1.3290  4.68$  8.24$  4.3$
  Q  0.6645  8.75$  3.67$  15.47$
  Q  0.6645  8.45$  2.66$  16.46$
  Q  -1.3290  8.95$  3.18$  16.08$
  Q  0.6645  6.66$  12.01$  18.76$
  Q  0.6645  6.45$  12.42$  20.32$
  Q  -1.3290  6.22$  12.23$  19.49$
  Q  0.6645  12.59$  10.39$  16.71$
  Q  0.6645  12.08$  11.86$  16.35$
  Q  -1.3290  12.37$  11.23$  16.83$
  Q  0.6645  8.85$  5.6$  4.18$
  Q  0.6645  9.54$  5.95$  5.56$
  Q  -1.3290  9.02$  6.07$  4.88$
  Q  0.6645  9.41$  13.52$  17.63$
  Q  0.6645  9.5$  14.92$  17.38$
  Q  -1.3290  9.83$  14.19$  17.49$
  Q  0.6645  18.47$  7.87$  18.53$
  Q  0.6645  18.73$  7.05$  19.7$
  Q  -1.3290  18.51$  7.15$  18.94$
  Q  0.6645  10.1$  2.34$  13.64$
  Q  0.6645  9.38$  1.16$  13.44$
  Q  -1.3290  9.9$  1.75$  13.17$
  Q  0.6645  18.29$  2.79$  7.59$
  Q  0.6645  17.67$  2.33$  8.82$
  Q  -1.3290  17.67$  2.71$  8.12$
  Q  0.6645  20.27$  16.07$  7.62$
  Q  0.6645  19.68$  14.98$  8.58$
  Q  -1.3290  20.3$  15.48$  8.21$
  Q  0.6645  12.99$  16.19$  17.21$
  Q  0.6645  13.29$  17.27$  16.15$
  Q  -1.3290  13.21$  16.96$  16.94$
  Q  0.6645  4.57$  12.71$  11.75$
  Q  0.6645  4.34$  14.36$  12.04$
  Q  -1.3290  4.2$  13.46$  12.02$
  Q  0.6645  18.86$  0.79$  9.58$
  Q  0.6645  19.15$  1.97$  10.56$
  Q  -1.3290  18.77$  1.28$  10.28$
  Q  0.6645  18.8$  15.05$  15.18$
  Q  0.6645  18.43$  16.41$  14.67$
  Q  -1.3290  18.88$  15.87$  15.12$
  Q  0.6645  12.04$  19.83$  12.93$
  Q  0.6645  12.04$  20.43$  14.32$
  Q  -1.3290  12.09$  19.81$  13.77$
  Q  0.6645  18.36$  18.07$  10.22$
  Q  0.6645  19.87$  17.92$  10.63$
  Q  -1.3290  19.1$  18.31$  10.62$
  Q  0.6645  0.16$  7.23$  12.19$
  Q  0.6645  -0.18$  8.78$  11.91$
  Q  -1.3290  0.07$  8.1$  12.37$
  Q  0.6645  7.75$  17.37$  2.9$
  Q  0.6645  8.35$  17.56$  1.39$
  Q  -1.3290  8.31$  17.66$  2.27$
  Q  0.6645  9.24$  18.66$  12.01$
  Q  0.6645  9.26$  18.77$  13.55$
  Q  -1.3290  8.9$  18.79$  12.79$
  Q  0.6645  5.25$  20.2$  15.21$
  Q  0.6645  5.75$  20.23$  13.72$
  Q  -1.3290  5.37$  20.52$  14.45$
  Q  0.6645  3.41$  17.54$  4.5$
  Q  0.6645  4.14$  16.67$  5.57$
  Q  -1.3290  4.07$  17.16$  4.87$
  Q  0.6645  4.51$  21.32$  10.01$
  Q  0.6645  6.16$  21.33$  10$
  Q  -1.3290  5.33$  21.21$  10.32$
  Q  0.6645  6.78$  17.9$  18.02$
  Q  0.6645  5.65$  17.25$  17.25$
  Q  -1.3290  6.01$  17.65$  17.89$
  Q  0.6645  9.03$  11.38$  17.87$
  Q  0.6645  8.17$  11.68$  16.6$
  Q  -1.3290  8.33$  11.66$  17.43$
  Q  0.6645  7.66$  21.99$  8.38$
  Q  0.6645  8.46$  22.25$  9.57$
  Q  -1.3290  7.81$  21.93$  9.16$
  Q  0.6645  17.28$  4.24$  18.39$
  Q  0.6645  17.55$  2.81$  18.33$
  Q  -1.3290  17.05$  3.48$  18.32$
  Q  0.6645  15.22$  2.4$  11.24$
  Q  0.6645  14.44$  2.95$  10.03$
  Q  -1.3290  14.61$  2.83$  10.85$
  Q  0.6645  17.31$  5.49$  4.8$
  Q  0.6645  18.18$  5.29$  3.69$
  Q  -1.3290  17.63$  5.02$  4.22$
  Q  0.6645  14.31$  18.62$  5.64$
  Q  0.6645  14.62$  18.88$  4.14$
  Q  -1.3290  14.8$  18.76$  4.96$
  Q  0.6645  3.55$  17.78$  10$
  Q  0.6645  3.84$  18.88$  8.93$
  Q  -1.3290  3.94$  18.11$  9.33$
  Q  0.6645  17.83$  8.75$  12.61$
  Q  0.6645  18.6$  8.92$  13.79$
  Q  -1.3290  18.23$  9.21$  13.15$
  Q  0.6645  14.11$  0.96$  13.83$
  Q  0.6645  15.7$  1.05$  13.79$
  Q  -1.3290  14.92$  0.99$  14.16$
  Q  0.6645  8.08$  7.89$  18.43$
  Q  0.6645  9.38$  7.43$  19.26$
  Q  -1.3290  8.84$  8$  18.86$
  Q  0.6645  20.85$  8.54$  14.55$
  Q  0.6645  19.8$  7.94$  15.41$
  Q  -1.3290  20.33$  8.54$  15.18$
  Q  0.6645  1.73$  11.71$  13.03$
  Q  0.6645  2.36$  12.73$  12.1$
  Q  -1.3290  1.73$  12.24$  12.37$
  Q  0.6645  15.43$  11.96$  17.02$
  Q  0.6645  13.89$  11.84$  17.41$
  Q  -1.3290  14.75$  12.07$  17.51$
  Q  0.6645  6.85$  19.15$  12.25$
  Q  0.6645  5.77$  20.06$  11.65$
  Q  -1.3290  6.07$  19.45$  12.16$
  Q  0.6645  16.91$  13.34$  16.03$
  Q  0.6645  17.94$  12.09$  16.06$
  Q  -1.3290  17.17$  12.46$  16.02$
  Q  0.6645  14.13$  4.81$  17.45$
  Q  0.6645  15.03$  3.57$  17.73$
  Q  -1.3290  14.3$  3.98$  17.56$
  Q  0.6645  3.9$  9.06$  11.62$
  Q  0.6645  4.25$  7.57$  11.3$
  Q  -1.3290  4.2$  8.4$  11.19$
  Q  0.6645  14.82$  6.92$  16.58$
  Q  0.6645  15.05$  6.71$  18.07$
  Q  -1.3290  14.8$  6.5$  17.32$
  Q  0.6645  2.67$  8.93$  8.4$
  Q  0.6645  3.02$  8.44$  9.81$
  Q  -1.3290  2.49$  8.68$  9.19$
  Q  0.6645  0.9$  14.31$  12.54$
  Q  0.6645  0.01$  15.35$  13.29$
  Q  -1.3290  0.44$  15$  12.6$
  Q  0.6645  19.45$  8.04$  7.48$
  Q  0.6645  19.03$  9.1$  6.42$
  Q  -1.3290  19.14$  8.33$  6.74$
  Q  0.6645  14.2$  15.18$  3.84$
  Q  0.6645  13.18$  14.37$  3.14$
  Q  -1.3290  13.9$  14.79$  3.17$
  Q  0.6645  10.43$  10.66$  5.51$
  Q  0.6645  11.61$  10.25$  4.68$
  Q  -1.3290  10.92$  10.64$  4.87$
  Q  0.6645  10.23$  11.28$  2.22$
  Q  0.6645  9.62$  10.29$  3.1$
  Q  -1.3290  9.69$  10.67$  2.38$
  Q  0.6645  12.58$  10.63$  1.25$
  Q  0.6645  12.78$  11.61$  2.39$
  Q  -1.3290  13.03$  11.14$  1.74$
  Q  0.6645  5.51$  20.2$  5.91$
  Q  0.6645  4.29$  21$  5.41$
  Q  -1.3290  5.01$  20.87$  5.88$
  Q  0.6645  17.68$  15.85$  10.03$
  Q  0.6645  17.35$  16.26$  8.51$
  Q  -1.3290  17.36$  16.32$  9.4$
  Q  0.6645  10.72$  7.7$  15.57$
  Q  0.6645  11.54$  6.56$  14.86$
  Q  -1.3290  11.4$  7.23$  15.38$
  Q  0.6645  3.71$  4.22$  15.39$
  Q  0.6645  4.44$  4.94$  14.19$
  Q  -1.3290  4.37$  4.42$  14.89$
  Q  0.6645  15.02$  11.25$  3.75$
  Q  0.6645  14.65$  11.12$  5.26$
  Q  -1.3290  14.84$  10.83$  4.49$
  Q  0.6645  10.21$  17.45$  10.23$
  Q  0.6645  9$  18.34$  9.9$
  Q  -1.3290  9.72$  18.16$  10.28$
  Q  0.6645  19.52$  4.82$  7.85$
  Q  0.6645  18.14$  5.11$  8.32$
  Q  -1.3290  18.98$  5.2$  8.32$
  Q  0.6645  14.96$  9.76$  22.15$
  Q  0.6645  15.2$  10.83$  21.09$
  Q  -1.3290  15.09$  10.06$  21.37$
  Q  0.6645  12.9$  1.2$  8.06$
  Q  0.6645  13.75$  0.76$  9.12$
  Q  -1.3290  13.52$  0.78$  8.35$
  Q  0.6645  10.81$  4.12$  10.48$
  Q  0.6645  10.73$  5.13$  9.39$
  Q  -1.3290  10.95$  4.86$  10.17$
  Q  0.6645  4.74$  11.31$  15.6$
  Q  0.6645  4.6$  10.61$  16.89$
  Q  -1.3290  4.88$  10.7$  16.15$
  Q  0.6645  7.01$  8.64$  3.89$
  Q  0.6645  8.42$  8.22$  4.24$
  Q  -1.3290  7.8$  8.76$  4.12$
  Q  0.6645  10.3$  17.87$  2.61$
  Q  0.6645  11.07$  17.58$  3.89$
  Q  -1.3290  10.98$  17.59$  3.06$
  Q  0.6645  17.11$  10.89$  13.16$
  Q  0.6645  16.44$  11.88$  14.13$
  Q  -1.3290  16.56$  11.49$  13.4$
  Q  0.6645  0.98$  11.69$  10.58$
  Q  0.6645  1.28$  10.4$  9.82$
  Q  -1.3290  0.82$  11.08$  10.04$
  Q  0.6645  11.81$  17.49$  6.28$
  Q  0.6645  10.23$  17.41$  6.07$
  Q  -1.3290  11.05$  17.62$  5.87$
  Q  0.6645  12.2$  3.47$  7.55$
  Q  0.6645  11$  2.56$  7.51$
  Q  -1.3290  11.73$  2.86$  7.84$
  Q  0.6645  20.07$  11.65$  16.56$
  Q  0.6645  19.86$  10.3$  15.93$
  Q  -1.3290  19.66$  11.12$  16.07$
  Q  0.6645  5.88$  3.62$  8.77$
  Q  0.6645  6.67$  2.39$  8.24$
  Q  -1.3290  6.55$  3.21$  8.4$
  Q  0.6645  12.31$  18.31$  18.24$
  Q  0.6645  11.95$  19.84$  18.32$
  Q  -1.3290  11.84$  18.98$  18.47$
  Q  0.6645  11.44$  12.52$  4.23$
  Q  0.6645  11.26$  13.64$  3.15$
  Q  -1.3290  11.65$  13$  3.56$
  Q  0.6645  16.06$  18.4$  16.83$
  Q  0.6645  15.45$  17.66$  15.71$
  Q  -1.3290  16.06$  17.8$  16.27$
  Q  0.6645  14.46$  -0.03$  17.44$
  Q  0.6645  14.45$  0.94$  16.23$
  Q  -1.3290  14.17$  0.6$  16.95$
  Q  0.6645  16.86$  7.93$  4.26$
  Q  0.6645  16.2$  9.27$  4.07$
  Q  -1.3290  16.72$  8.65$  3.84$
  Q  0.6645  14.32$  20.22$  12.01$
  Q  0.6645  15.57$  19.71$  11.32$
  Q  -1.3290  15.16$  20.14$  11.93$
  Q  0.6645  16.55$  7.82$  19.61$
  Q  0.6645  15.36$  8.65$  20.05$
  Q  -1.3290  15.74$  7.97$  19.74$
  Q  0.6645  10.61$  6.11$  17.01$
  Q  0.6645  9.85$  4.72$  17.23$
  Q  -1.3290  10.24$  5.48$  17.47$
  Q  0.6645  7.58$  3.84$  10.26$
  Q  0.6645  8.68$  2.97$  10.63$
  Q  -1.3290  8$  3.41$  10.81$
  Q  0.6645  6.31$  17.96$  9.33$
  Q  0.6645  7.54$  17.63$  8.49$
  Q  -1.3290  7.05$  17.64$  9.18$
  Q  0.6645  11.61$  20.68$  8.07$
  Q  0.6645  11.03$  19.42$  8.9$
  Q  -1.3290  11.63$  19.97$  8.57$
  Q  0.6645  6.93$  5.12$  8.27$
  Q  0.6645  5.97$  6.29$  8.46$
  Q  -1.3290  6.73$  5.91$  8.43$
  Q  0.6645  5.68$  18.38$  5.48$
  Q  0.6645  6.86$  19.01$  4.61$
  Q  -1.3290  6.43$  18.76$  5.33$
  Q  0.6645  18.86$  13.64$  10.32$
  Q  0.6645  18.14$  12.64$  9.36$
  Q  -1.3290  18.33$  13.4$  9.69$
  Q  0.6645  18.93$  5.95$  16.14$
  Q  0.6645  17.65$  6.72$  15.52$
  Q  -1.3290  18.48$  6.5$  15.62$
  Q  0.6645  6.89$  4.81$  5.52$
  Q  0.6645  6.73$  3.63$  6.46$
  Q  -1.3290  6.99$  4.01$  5.77$
  Q  0.6645  7.34$  21.66$  13.92$
  Q  0.6645  8.44$  20.82$  13.52$
  Q  -1.3290  8.12$  21.5$  13.79$
  Q  0.6645  6.04$  7.64$  16.85$
  Q  0.6645  6.82$  6.42$  17.43$
  Q  -1.3290  6.65$  7.25$  17.31$
*
