! NoMOPrint PrintBasis #MINIPRINT SMALLPRINT LARGEPRINT
! ALLPOP XYZFILE
#! BP86 3-21G   TightSCF
! ENGRAD
! B3LYP NormalPNO PModel #DecontractAux
#! VerySlowConv 
 %maxcore 5000
 %scf  maxiter   500  end 

%pal
    nprocs 32
end

%basis
    NewGTO O    # New basis for oxygen
        "aug-cc-pVTZ"
    end
    NewGTO C    # New basis for carbon
        "aug-cc-pVTZ"
    end
    NewGTO H    # New basis for hydrogen
        "cc-pVTZ"
    end
end

* xyz 0   1
  C  10.07  10.34  11.94  #1
  H  10.6  9.79  11.15  #2
  H  9.08  10.69  11.64  #3
  C  10.83  11.51  12.39  #4
  H  10.23  12.16  12.93  #5
  H  11.58  11.21  13.1  #6
  C  11.47  12.11  11.1  #7
  H  12.59  12.04  11.11  #8
  H  11.28  13.17  11.16  #9
  C  11.04  11.47  9.75  #10
  H  9.98  11.6  9.51  #11
  H  11.22  10.37  9.62  #12
  O  11.79  12.08  8.65  #13
  H  12.63  11.51  8.62  #14
  O  9.91  9.46  13.09  #15
  H  9.84  8.55  12.85  #16
  O  7.71  12.82  13.18  #17
  H  8.55  13.27  13.01  #18
  H  7.49  12.42  12.33  #19
  O  8.56  10.62  7.23  #20
  H  8.89  10.23  8.07  #21
  H  8.32  11.52  7.37  #22
  O  8  13.45  8.21  #23
  H  8.78  13.79  8.61  #24
  H  7.49  13.27  8.99  #25
  O  9.17  6.3  12.96  #26
  H  8.38  6.84  12.88  #27
  H  9.26  6.02  13.88  #28
  O  10.56  6.2  10.45  #29
  H  10.31  5.44  9.88  #30
  H  9.98  6.09  11.18  #31
  O  6.88  9.76  9.39  #32
  H  6.98  9.6  8.45  #33
  H  7.02  8.86  9.64  #34
  O  6.5  12.46  10.34  #35
  H  6.53  11.47  10.39  #36
  H  5.78  12.74  10.97  #37
  O  7.09  7.07  10.4  #38
  H  6.96  6.95  11.33  #39
  H  6.77  6.35  9.82  #40
  O  13.26  7.19  10.12  #41
  H  12.53  6.7  10.43  #42
  H  14.1  6.68  9.96  #43
  O  11.2  10.2  5.93  #44
  H  10.28  10.29  6.25  #45
  H  11.84  10.12  6.66  #46
  O  6.66  7.87  13.13  #47
  H  6.2  8.53  12.59  #48
  H  6.17  7.06  13.1  #49
  O  14.44  11.58  8.08  #50
  H  14.44  11.68  7.11  #51
  H  14.47  12.49  8.41  #52
  O  12.67  8.57  7.83  #53
  H  13.52  8.94  7.54  #54
  H  12.83  8.07  8.64  #55
  O  12.12  15.41  13.22  #56
  H  11.59  14.74  12.83  #57
  H  13.05  15.11  13.13  #58
  O  9.76  4.65  8.45  #59
  H  9.77  3.69  8.45  #60
  H  9.91  5.01  7.56  #61
  O  12.85  9.37  15.61  #62
  H  11.92  9.57  15.5  #63
  H  12.87  9.35  16.62  #64
  O  6.31  15.71  10.89  #65
  H  6.03  16.42  10.32  #66
  H  7.05  15.26  10.44  #67
  O  9.89  15.22  9.3  #68
  H  9.43  15.92  8.83  #69
  H  10.82  15.47  9.03  #70
  O  9.86  8.52  8.71  #71
  H  10.72  8.65  8.3  #72
  H  10.07  7.9  9.42  #73
  O  9.61  14.58  12.2  #74
  H  9.63  15.34  12.71  #75
  H  9.73  14.9  11.34  #76
  O  11.42  3.69  12.17  #77
  H  11.54  4.14  11.35  #78
  H  12.18  3.98  12.74  #79
  O  10.09  10.23  15.58  #80
  H  10.46  11.1  15.78  #81
  H  9.92  10.15  14.62  #82
  O  6.25  15.5  14.39  #83
  H  6.69  14.76  13.97  #84
  H  5.43  15.19  14.86  #85
  O  6.14  12.01  15.16  #86
  H  6.37  11.12  15.37  #87
  H  6.72  12.26  14.5  #88
  O  9.06  4.85  15.77  #89
  H  9.57  4.1  15.51  #90
  H  9.82  5.41  16.08  #91
  O  11.71  13.62  6.24  #92
  H  11.64  13.1  7.06  #93
  H  11.22  13.15  5.57  #94
  O  7.73  15.58  6.44  #95
  H  7.81  14.71  6.7  #96
  H  6.99  15.74  5.82  #97
  Q  0.6645  12.48$  17.1$  12.67$
  Q  0.6645  13.85$  17.6$  12.44$
  Q  -1.3290  13.05$  17.66$  12.44$
  Q  0.6645  6.01$  4.25$  13.38$
  Q  0.6645  6.98$  4.6$  12.3$
  Q  -1.3290  6.33$  4.73$  12.78$
  Q  0.6645  16.99$  13.01$  16.62$
  Q  0.6645  18.29$  13.46$  17.3$
  Q  -1.3290  17.45$  13.43$  17.21$
  Q  0.6645  20.55$  10.46$  7.07$
  Q  0.6645  20.53$  8.97$  6.75$
  Q  -1.3290  20.77$  9.64$  7.18$
  Q  0.6645  7.88$  17.18$  7.51$
  Q  0.6645  8.93$  18.13$  7.78$
  Q  -1.3290  8.41$  17.55$  8.03$
  Q  0.6645  10.92$  7.12$  17.42$
  Q  0.6645  12.02$  6.47$  16.33$
  Q  -1.3290  11.21$  6.69$  16.68$
  Q  0.6645  18.7$  8.53$  17.09$
  Q  0.6645  18.5$  7.62$  18.34$
  Q  -1.3290  18.43$  8.35$  17.88$
  Q  0.6645  12.36$  10.75$  4.17$
  Q  0.6645  13.31$  11.15$  2.98$
  Q  -1.3290  12.59$  10.79$  3.35$
  Q  0.6645  17.66$  13.81$  5.25$
  Q  0.6645  16.53$  12.82$  5.79$
  Q  -1.3290  16.89$  13.46$  5.29$
  Q  0.6645  1.11$  9.97$  15.67$
  Q  0.6645  1.46$  8.44$  16$
  Q  -1.3290  1.02$  9.19$  16.08$
  Q  0.6645  7.49$  13.77$  20.25$
  Q  0.6645  7.52$  15.01$  21.11$
  Q  -1.3290  7.14$  14.46$  20.61$
  Q  0.6645  2.9$  16.72$  8.92$
  Q  0.6645  1.39$  16.96$  9$
  Q  -1.3290  2.22$  17.1$  9.23$
  Q  0.6645  2.67$  16.14$  12.49$
  Q  0.6645  2.07$  15.59$  11.09$
  Q  -1.3290  2.09$  15.81$  11.95$
  Q  0.6645  4.28$  6.76$  17.88$
  Q  0.6645  4.32$  5.29$  18.64$
  Q  -1.3290  4.28$  5.88$  17.96$
  Q  0.6645  15.17$  9.59$  13.3$
  Q  0.6645  14.22$  10.22$  14.26$
  Q  -1.3290  14.83$  10.26$  13.71$
  Q  0.6645  15.75$  15.26$  14.71$
  Q  0.6645  14.99$  16.43$  15.48$
  Q  -1.3290  15.1$  15.72$  14.99$
  Q  0.6645  4.82$  16.48$  17.37$
  Q  0.6645  5.64$  17.25$  16.1$
  Q  -1.3290  4.99$  16.84$  16.56$
  Q  0.6645  11.77$  12.52$  19.3$
  Q  0.6645  12.38$  12.15$  17.97$
  Q  -1.3290  12.03$  12$  18.72$
  Q  0.6645  1.86$  6.09$  15.42$
  Q  0.6645  2.55$  6.53$  16.58$
  Q  -1.3290  1.87$  6.45$  16.14$
  Q  0.6645  8.43$  19.67$  6.46$
  Q  0.6645  9.58$  19.57$  5.37$
  Q  -1.3290  9.15$  19.33$  6.1$
  Q  0.6645  10.28$  8.09$  19.31$
  Q  0.6645  9.23$  6.77$  19.22$
  Q  -1.3290  9.99$  7.2$  19.17$
  Q  0.6645  18.01$  14.98$  8.1$
  Q  0.6645  16.55$  15.18$  8.68$
  Q  -1.3290  17.36$  15.37$  8.51$
  Q  0.6645  20.74$  9.58$  9.27$
  Q  0.6645  20.01$  9.2$  10.54$
  Q  -1.3290  20.56$  9.69$  10.09$
  Q  0.6645  4.18$  4.51$  12.01$
  Q  0.6645  2.98$  3.98$  11.06$
  Q  -1.3290  3.76$  4.32$  11.29$
  Q  0.6645  14.53$  20.71$  6.03$
  Q  0.6645  13.45$  20.28$  5.13$
  Q  -1.3290  14.03$  20.15$  5.72$
  Q  0.6645  18.57$  6.42$  9.19$
  Q  0.6645  19.37$  5.3$  9.73$
  Q  -1.3290  18.69$  5.7$  9.6$
  Q  0.6645  1.49$  13.78$  10.25$
  Q  0.6645  2.18$  14.29$  8.92$
  Q  -1.3290  2.15$  14$  9.72$
  Q  0.6645  1.14$  10.48$  13.5$
  Q  0.6645  0.33$  11.78$  13.83$
  Q  -1.3290  0.84$  11.09$  14$
  Q  0.6645  11.03$  6.92$  4.59$
  Q  0.6645  11.35$  8.55$  4.77$
  Q  -1.3290  11.04$  7.8$  4.37$
  Q  0.6645  16.01$  11.04$  14.82$
  Q  0.6645  17.43$  11.09$  15.29$
  Q  -1.3290  16.63$  11.33$  15.33$
  Q  0.6645  4.22$  13.76$  13.71$
  Q  0.6645  3.07$  14.37$  14.56$
  Q  -1.3290  3.86$  14.11$  14.41$
  Q  0.6645  1.22$  9.6$  7.21$
  Q  0.6645  2.58$  9.89$  7.8$
  Q  -1.3290  2.05$  9.63$  7.22$
  Q  0.6645  2.74$  3.98$  14.06$
  Q  0.6645  3.67$  5.22$  14.01$
  Q  -1.3290  2.95$  4.81$  14.12$
  Q  0.6645  8.36$  13.17$  18.26$
  Q  0.6645  9.33$  13.57$  19.5$
  Q  -1.3290  8.85$  13.08$  19.02$
  Q  0.6645  13.65$  18.79$  15.96$
  Q  0.6645  13.6$  17.86$  17.14$
  Q  -1.3290  13.98$  18.39$  16.63$
  Q  0.6645  8.67$  1.41$  13.6$
  Q  0.6645  8.06$  0.04$  13.23$
  Q  -1.3290  8.04$  0.87$  13.34$
  Q  0.6645  8.05$  3.73$  16.99$
  Q  0.6645  7.23$  3.22$  18.19$
  Q  -1.3290  7.48$  3.25$  17.37$
  Q  0.6645  8.93$  9.22$  21.43$
  Q  0.6645  9.77$  8.11$  21.91$
  Q  -1.3290  9.02$  8.45$  21.65$
  Q  0.6645  7.06$  8.27$  15.92$
  Q  0.6645  8.1$  9.35$  16.23$
  Q  -1.3290  7.33$  9.03$  16.19$
  Q  0.6645  3.19$  13.14$  17.34$
  Q  0.6645  4.35$  12.85$  16.47$
  Q  -1.3290  3.97$  12.9$  17.17$
  Q  0.6645  17.16$  6.2$  15.86$
  Q  0.6645  15.53$  6.51$  16.04$
  Q  -1.3290  16.34$  6.11$  16.19$
  Q  0.6645  10.89$  13.72$  3.43$
  Q  0.6645  11.43$  12.19$  3.49$
  Q  -1.3290  10.91$  12.89$  3.66$
  Q  0.6645  8.18$  17.17$  15.98$
  Q  0.6645  9.6$  16.84$  15.88$
  Q  -1.3290  8.86$  16.78$  16.24$
  Q  0.6645  12.12$  -0.53$  14.71$
  Q  0.6645  10.98$  0.03$  15.72$
  Q  -1.3290  11.57$  0.06$  15.08$
  Q  0.6645  9.29$  11.47$  20.66$
  Q  0.6645  8.59$  11.38$  22.04$
  Q  -1.3290  9.04$  11.1$  21.41$
  Q  0.6645  19.85$  15.82$  11.16$
  Q  0.6645  18.73$  15.64$  10.09$
  Q  -1.3290  19.28$  15.38$  10.68$
  Q  0.6645  15.89$  2.7$  9.71$
  Q  0.6645  14.84$  3.61$  10.4$
  Q  -1.3290  15.62$  3.26$  10.29$
  Q  0.6645  19.74$  11.15$  15.86$
  Q  0.6645  19.78$  10.02$  14.92$
  Q  -1.3290  19.4$  10.5$  15.45$
  Q  0.6645  17.32$  8.77$  9.01$
  Q  0.6645  16.91$  7.33$  8.62$
  Q  -1.3290  17.41$  8.02$  8.61$
  Q  0.6645  6.24$  4.36$  8.58$
  Q  0.6645  7.77$  4.81$  8.58$
  Q  -1.3290  6.93$  4.91$  8.45$
  Q  0.6645  8.8$  16.2$  18.26$
  Q  0.6645  9.38$  17.11$  19.3$
  Q  -1.3290  8.99$  16.44$  19.04$
  Q  0.6645  4.46$  15.37$  6.64$
  Q  0.6645  4.59$  16.63$  5.6$
  Q  -1.3290  4.39$  16.19$  6.34$
  Q  0.6645  8.76$  18.24$  3.06$
  Q  0.6645  8.77$  17.27$  4.27$
  Q  -1.3290  8.51$  17.56$  3.51$
  Q  0.6645  12.29$  16.55$  17.4$
  Q  0.6645  11.76$  17.12$  18.78$
  Q  -1.3290  12.31$  16.77$  18.24$
  Q  0.6645  14.09$  18.59$  6.99$
  Q  0.6645  13.57$  18.2$  8.33$
  Q  -1.3290  14.1$  18.13$  7.69$
  Q  0.6645  14.77$  12.12$  4.7$
  Q  0.6645  13.52$  12.54$  5.54$
  Q  -1.3290  14.21$  12.12$  5.37$
  Q  0.6645  15.95$  6$  18.45$
  Q  0.6645  15.18$  4.84$  19.08$
  Q  -1.3290  15.53$  5.61$  19.06$
  Q  0.6645  19.97$  9.82$  4.22$
  Q  0.6645  20.43$  11.26$  4.38$
  Q  -1.3290  20.12$  10.6$  3.97$
  Q  0.6645  9.48$  6.27$  5.91$
  Q  0.6645  9.38$  4.84$  5.18$
  Q  -1.3290  9.76$  5.49$  5.6$
  Q  0.6645  8.05$  7.37$  20.61$
  Q  0.6645  7.76$  5.76$  20.81$
  Q  -1.3290  7.76$  6.54$  20.43$
  Q  0.6645  11.14$  15.32$  1.31$
  Q  0.6645  12.29$  14.67$  0.7$
  Q  -1.3290  11.49$  14.79$  0.76$
  Q  0.6645  13.94$  10.72$  20.53$
  Q  0.6645  15.16$  10.48$  19.41$
  Q  -1.3290  14.74$  10.83$  20.14$
  Q  0.6645  14.31$  7.07$  14.11$
  Q  0.6645  13.49$  7.29$  15.46$
  Q  -1.3290  13.86$  6.83$  14.86$
  Q  0.6645  11.2$  14.41$  20.54$
  Q  0.6645  11.91$  15.04$  19.36$
  Q  -1.3290  11.55$  14.43$  19.77$
  Q  0.6645  16.8$  5.71$  3.91$
  Q  0.6645  18.08$  6.16$  3.17$
  Q  -1.3290  17.58$  6$  3.84$
  Q  0.6645  10.86$  19.42$  16.42$
  Q  0.6645  11.79$  20.2$  17.42$
  Q  -1.3290  11.05$  19.87$  17.11$
  Q  0.6645  10.03$  19.99$  11.18$
  Q  0.6645  10.58$  19.05$  9.99$
  Q  -1.3290  10.02$  19.39$  10.56$
  Q  0.6645  12.72$  9.71$  1.02$
  Q  0.6645  11.82$  10.65$  0.25$
  Q  -1.3290  12.56$  10.26$  0.43$
  Q  0.6645  10.47$  19.77$  14.16$
  Q  0.6645  9.63$  18.56$  13.91$
  Q  -1.3290  10.03$  19.11$  14.42$
  Q  0.6645  16.19$  16.56$  5.75$
  Q  0.6645  17.34$  16.66$  6.64$
  Q  -1.3290  16.97$  16.74$  5.92$
  Q  0.6645  6.59$  13.36$  4.58$
  Q  0.6645  5.21$  13.15$  5.06$
  Q  -1.3290  5.86$  13.63$  4.85$
  Q  0.6645  17.01$  10.86$  4.62$
  Q  0.6645  16.86$  9.8$  5.7$
  Q  -1.3290  16.96$  10.56$  5.4$
  Q  0.6645  19.9$  12.57$  12.88$
  Q  0.6645  21.25$  13.28$  12.55$
  Q  -1.3290  20.64$  12.97$  13.04$
  Q  0.6645  13.64$  14.55$  8.49$
  Q  0.6645  14.32$  14.35$  9.9$
  Q  -1.3290  14.23$  14.24$  9.04$
  Q  0.6645  14.38$  5.09$  2.63$
  Q  0.6645  14.75$  4.69$  4.05$
  Q  -1.3290  14.65$  5.25$  3.44$
  Q  0.6645  6.16$  3.05$  15.28$
  Q  0.6645  6.63$  2.1$  14.18$
  Q  -1.3290  6.12$  2.69$  14.55$
  Q  0.6645  15.1$  9.87$  0.26$
  Q  0.6645  14.98$  9.05$  1.44$
  Q  -1.3290  15.38$  9.29$  0.76$
  Q  0.6645  4.72$  3.48$  9.99$
  Q  0.6645  4.72$  2.47$  8.75$
  Q  -1.3290  5$  3.1$  9.27$
  Q  0.6645  15.03$  16.33$  3.2$
  Q  0.6645  16.31$  15.72$  2.57$
  Q  -1.3290  15.56$  16.13$  2.57$
  Q  0.6645  4.91$  11.94$  9.38$
  Q  0.6645  3.46$  12.28$  9.19$
  Q  -1.3290  4.17$  11.86$  9.04$
  Q  0.6645  12.04$  15.86$  6.87$
  Q  0.6645  12.96$  16.72$  7.71$
  Q  -1.3290  12.38$  16.12$  7.59$
  Q  0.6645  18.52$  12.97$  10.17$
  Q  0.6645  19.48$  11.68$  10.16$
  Q  -1.3290  18.85$  12.21$  9.89$
  Q  0.6645  11.81$  1.68$  9.2$
  Q  0.6645  13.32$  1.27$  8.86$
  Q  -1.3290  12.54$  1.73$  8.82$
  Q  0.6645  6.8$  12.38$  1.16$
  Q  0.6645  7.67$  12.37$  2.41$
  Q  -1.3290  7.42$  12.65$  1.66$
  Q  0.6645  3.43$  12.58$  3.12$
  Q  0.6645  4.24$  13.87$  3.24$
  Q  -1.3290  3.67$  13.39$  2.88$
  Q  0.6645  7.18$  5.83$  15.78$
  Q  0.6645  5.82$  5.72$  16.37$
  Q  -1.3290  6.42$  6.09$  15.94$
  Q  0.6645  4.57$  9.82$  11.5$
  Q  0.6645  4.69$  9.77$  12.89$
  Q  -1.3290  4.96$  10.02$  12.15$
  Q  0.6645  17.34$  13.27$  2.29$
  Q  0.6645  18.1$  14.49$  2.9$
  Q  -1.3290  17.6$  14.07$  2.34$
  Q  0.6645  13.76$  17.52$  2.33$
  Q  0.6645  12.89$  18.71$  3.01$
  Q  -1.3290  13.13$  17.91$  2.76$
  Q  0.6645  1.41$  5.81$  12.79$
  Q  0.6645  1.1$  7.28$  12.31$
  Q  -1.3290  0.95$  6.43$  12.45$
  Q  0.6645  3.21$  16.34$  15.66$
  Q  0.6645  2.23$  16.84$  14.48$
  Q  -1.3290  2.45$  16.54$  15.26$
  Q  0.6645  12.07$  16.26$  3.28$
  Q  0.6645  11.19$  15.82$  4.49$
  Q  -1.3290  11.55$  15.74$  3.71$
  Q  0.6645  5.15$  7.24$  6.38$
  Q  0.6645  3.75$  7.82$  6.72$
  Q  -1.3290  4.6$  7.68$  6.85$
  Q  0.6645  9.13$  2.05$  10.49$
  Q  0.6645  9.44$  1.24$  9.3$
  Q  -1.3290  9.66$  1.69$  9.93$
  Q  0.6645  5.8$  14.88$  19.48$
  Q  0.6645  4.98$  14.16$  18.47$
  Q  -1.3290  5.23$  14.85$  18.85$
  Q  0.6645  11.35$  3.91$  19.89$
  Q  0.6645  11.13$  5.45$  19.74$
  Q  -1.3290  11.48$  4.75$  20.07$
  Q  0.6645  14.87$  7.29$  3.42$
  Q  0.6645  14.2$  8.65$  3.85$
  Q  -1.3290  14.74$  8.15$  3.43$
  Q  0.6645  4.93$  16.6$  13.49$
  Q  0.6645  4.51$  17.93$  12.81$
  Q  -1.3290  4.44$  17.11$  13.02$
  Q  0.6645  18.3$  8.13$  12.23$
  Q  0.6645  17.96$  9.41$  11.29$
  Q  -1.3290  18.43$  8.77$  11.62$
  Q  0.6645  6.38$  19.51$  11.94$
  Q  0.6645  5.63$  20.16$  13.03$
  Q  -1.3290  6.14$  19.62$  12.75$
  Q  0.6645  9.48$  17.99$  11.7$
  Q  0.6645  8.4$  17.08$  12.2$
  Q  -1.3290  9.15$  17.48$  12.27$
  Q  0.6645  7.68$  3.73$  3.61$
  Q  0.6645  6.95$  4.45$  4.71$
  Q  -1.3290  7.6$  4.01$  4.41$
  Q  0.6645  7.7$  9.06$  5.25$
  Q  0.6645  8.85$  8.68$  4.42$
  Q  -1.3290  8.15$  9.08$  4.57$
  Q  0.6645  12.79$  2.99$  15.77$
  Q  0.6645  12.48$  1.52$  15.88$
  Q  -1.3290  12.76$  2.25$  16.15$
  Q  0.6645  11.88$  6.93$  1.27$
  Q  0.6645  10.81$  7.6$  2.37$
  Q  -1.3290  11.11$  7.16$  1.64$
  Q  0.6645  2.34$  15.18$  6.4$
  Q  0.6645  2.79$  13.64$  6.61$
  Q  -1.3290  2.4$  14.44$  6.82$
  Q  0.6645  9.4$  -0.25$  17.49$
  Q  0.6645  8.61$  1.01$  17.15$
  Q  -1.3290  9.3$  0.56$  17.31$
  Q  0.6645  8.26$  11.15$  4.21$
  Q  0.6645  9.08$  12.53$  3.81$
  Q  -1.3290  8.37$  12.01$  3.97$
  Q  0.6645  19.94$  15.35$  16.19$
  Q  0.6645  19.99$  14.06$  15.52$
  Q  -1.3290  19.81$  14.85$  15.56$
  Q  0.6645  4.97$  9.03$  18.63$
  Q  0.6645  3.52$  9.06$  18.8$
  Q  -1.3290  4.22$  8.77$  18.47$
  Q  0.6645  13.18$  19.97$  9.66$
  Q  0.6645  12.7$  18.77$  10.58$
  Q  -1.3290  12.75$  19.25$  9.85$
  Q  0.6645  16.88$  17.42$  9.27$
  Q  0.6645  15.43$  18.1$  8.87$
  Q  -1.3290  16.16$  17.91$  9.36$
  Q  0.6645  17.48$  18.58$  14.82$
  Q  0.6645  16.48$  19.54$  14.14$
  Q  -1.3290  17.06$  18.94$  14.16$
  Q  0.6645  18.75$  11.69$  8.07$
  Q  0.6645  18.45$  11.5$  6.51$
  Q  -1.3290  18.93$  11.69$  7.22$
  Q  0.6645  14.81$  14.84$  1.34$
  Q  0.6645  14.61$  14.36$  -0.04$
  Q  -1.3290  14.5$  14.32$  0.79$
  Q  0.6645  10.31$  3.24$  13.72$
  Q  0.6645  10.72$  1.91$  14.32$
  Q  -1.3290  10.27$  2.6$  14.28$
  Q  0.6645  11.13$  10.3$  18.97$
  Q  0.6645  10.02$  9.92$  17.99$
  Q  -1.3290  10.49$  9.83$  18.7$
  Q  0.6645  15.8$  16.54$  18.65$
  Q  0.6645  16.52$  15.45$  17.74$
  Q  -1.3290  16.37$  16.25$  18.03$
  Q  0.6645  14.04$  7.12$  21.48$
  Q  0.6645  12.98$  6.04$  20.74$
  Q  -1.3290  13.38$  6.5$  21.38$
  Q  0.6645  14.01$  21.97$  10.81$
  Q  0.6645  15.13$  21.34$  9.97$
  Q  -1.3290  14.34$  21.53$  10.17$
  Q  0.6645  14.71$  12.67$  2.04$
  Q  0.6645  15.69$  11.43$  2.55$
  Q  -1.3290  14.95$  11.93$  2.49$
  Q  0.6645  17.55$  11.15$  1.77$
  Q  0.6645  18.28$  11.26$  3.14$
  Q  -1.3290  17.62$  11.26$  2.6$
  Q  0.6645  16.63$  2.79$  15.82$
  Q  0.6645  16.08$  4.25$  15.48$
  Q  -1.3290  16.16$  3.4$  15.41$
  Q  0.6645  15.12$  14.17$  12.16$
  Q  0.6645  14.96$  15.61$  11.9$
  Q  -1.3290  14.7$  14.83$  11.9$
  Q  0.6645  16.12$  5.32$  9.55$
  Q  0.6645  15.74$  5.7$  8.19$
  Q  -1.3290  15.74$  5.8$  9.02$
  Q  0.6645  1.89$  6.16$  8.7$
  Q  0.6645  1.8$  4.75$  8.33$
  Q  -1.3290  1.57$  5.53$  8.29$
  Q  0.6645  17.89$  6.09$  13.11$
  Q  0.6645  17.68$  5.99$  11.61$
  Q  -1.3290  17.52$  6.26$  12.39$
  Q  0.6645  10.43$  12.71$  17.2$
  Q  0.6645  9.48$  13.23$  16.15$
  Q  -1.3290  10.2$  12.92$  16.41$
  Q  0.6645  14.87$  15.19$  19.82$
  Q  0.6645  13.73$  16.18$  19.62$
  Q  -1.3290  14.47$  15.95$  19.92$
  Q  0.6645  7.45$  2.33$  11.81$
  Q  0.6645  6.56$  2.87$  10.75$
  Q  -1.3290  7.27$  2.76$  11.1$
  Q  0.6645  12.03$  15.51$  14.97$
  Q  0.6645  11.23$  14.87$  15.98$
  Q  -1.3290  11.64$  15.5$  15.71$
  Q  0.6645  4.39$  12.33$  7.01$
  Q  0.6645  3.58$  11.73$  5.77$
  Q  -1.3290  3.89$  12.32$  6.3$
  Q  0.6645  11.56$  21.42$  12.34$
  Q  0.6645  10.61$  22.04$  11.32$
  Q  -1.3290  10.82$  21.52$  11.96$
  Q  0.6645  19.76$  15.52$  4.3$
  Q  0.6645  18.42$  15.87$  4.83$
  Q  -1.3290  19.01$  15.33$  4.58$
  Q  0.6645  12.74$  6.81$  6.85$
  Q  0.6645  12.19$  5.66$  6.07$
  Q  -1.3290  12.72$  6.04$  6.57$
  Q  0.6645  4.33$  18.02$  9.36$
  Q  0.6645  4.85$  17.58$  7.97$
  Q  -1.3290  4.88$  17.7$  8.8$
  Q  0.6645  4.04$  6.14$  10.32$
  Q  0.6645  4.38$  6.82$  8.88$
  Q  -1.3290  3.98$  6.7$  9.64$
  Q  0.6645  19.7$  13.63$  7.27$
  Q  0.6645  19.41$  14.75$  6.27$
  Q  -1.3290  19.67$  14.45$  7.01$
  Q  0.6645  16.78$  9.27$  17.88$
  Q  0.6645  16.04$  10.39$  17.15$
  Q  -1.3290  16.16$  9.85$  17.78$
  Q  0.6645  8.21$  0.67$  7.65$
  Q  0.6645  8.12$  -0.54$  8.58$
  Q  -1.3290  8.52$  0.06$  8.12$
  Q  0.6645  13.91$  1.58$  12.63$
  Q  0.6645  12.4$  1.77$  12.41$
  Q  -1.3290  13.12$  1.34$  12.47$
  Q  0.6645  20.43$  8.08$  4.17$
  Q  0.6645  19.14$  8.2$  5$
  Q  -1.3290  19.96$  8.27$  4.87$
  Q  0.6645  4.94$  7.22$  15.08$
  Q  0.6645  4.01$  8.45$  15.21$
  Q  -1.3290  4.31$  7.72$  14.89$
  Q  0.6645  5.29$  5.92$  4.59$
  Q  0.6645  4.76$  4.66$  5.24$
  Q  -1.3290  5.31$  5.31$  5.13$
  Q  0.6645  0.52$  9.18$  11.62$
  Q  0.6645  2.01$  9.24$  11.55$
  Q  -1.3290  1.27$  9.16$  11.96$
  Q  0.6645  4.18$  7.67$  3.7$
  Q  0.6645  5.65$  7.85$  3.2$
  Q  -1.3290  4.96$  7.44$  3.46$
  Q  0.6645  14.81$  5.13$  6.23$
  Q  0.6645  15.65$  4.01$  6.64$
  Q  -1.3290  15.49$  4.8$  6.49$
  Q  0.6645  3.73$  13.46$  11.35$
  Q  0.6645  4.89$  14.4$  11.62$
  Q  -1.3290  4.48$  13.71$  11.71$
  Q  0.6645  4.44$  11.79$  18.86$
  Q  0.6645  5.74$  11.12$  19.13$
  Q  -1.3290  4.95$  11.39$  19.36$
  Q  0.6645  7.44$  6.52$  7.11$
  Q  0.6645  8.33$  7.46$  7.85$
  Q  -1.3290  8.02$  7.1$  7.17$
  Q  0.6645  3.51$  8.69$  9.79$
  Q  0.6645  3.65$  10.18$  9.76$
  Q  -1.3290  3.34$  9.47$  10.03$
  Q  0.6645  15.81$  10.38$  9.5$
  Q  0.6645  17.09$  11.06$  9.68$
  Q  -1.3290  16.57$  10.42$  9.79$
  Q  0.6645  16.02$  2.63$  13.47$
  Q  0.6645  15.92$  2.37$  11.97$
  Q  -1.3290  15.98$  2.16$  12.78$
  Q  0.6645  15.76$  13.53$  18.72$
  Q  0.6645  15.21$  12.72$  19.77$
  Q  -1.3290  15.24$  13.38$  19.35$
  Q  0.6645  10.56$  1.64$  18.54$
  Q  0.6645  11.65$  2.43$  17.97$
  Q  -1.3290  11.29$  2.04$  18.61$
  Q  0.6645  17.09$  13.19$  12.88$
  Q  0.6645  16.22$  11.87$  12.54$
  Q  -1.3290  16.77$  12.54$  12.39$
  Q  0.6645  1.15$  13.23$  7.37$
  Q  0.6645  1.37$  11.88$  7.78$
  Q  -1.3290  0.92$  12.54$  7.69$
  Q  0.6645  4.43$  11.19$  14.65$
  Q  0.6645  2.88$  11.18$  14.38$
  Q  -1.3290  3.67$  10.85$  14.52$
  Q  0.6645  18.01$  21.13$  10.11$
  Q  0.6645  16.93$  20.02$  9.78$
  Q  -1.3290  17.25$  20.77$  10.1$
  Q  0.6645  7.06$  9.94$  17.78$
  Q  0.6645  7.83$  9.8$  19.14$
  Q  -1.3290  7.24$  10.08$  18.62$
  Q  0.6645  21.68$  12.4$  10.03$
  Q  0.6645  20.88$  13.71$  10.38$
  Q  -1.3290  21.49$  13.14$  10.45$
  Q  0.6645  13.66$  5.16$  14.02$
  Q  0.6645  14.23$  3.8$  14.5$
  Q  -1.3290  13.72$  4.3$  14.05$
  Q  0.6645  14.6$  8.3$  17.87$
  Q  0.6645  14.3$  7.01$  18.51$
  Q  -1.3290  14.21$  7.59$  17.93$
  Q  0.6645  17.35$  15.55$  13.1$
  Q  0.6645  17.96$  14.9$  14.44$
  Q  -1.3290  17.41$  14.98$  13.74$
  Q  0.6645  13.73$  20.61$  13.88$
  Q  0.6645  13.03$  19.18$  13.63$
  Q  -1.3290  13.15$  19.95$  14$
  Q  0.6645  7.69$  14.5$  1.57$
  Q  0.6645  8.36$  15.86$  2.09$
  Q  -1.3290  7.88$  15.33$  1.6$
  Q  0.6645  7.33$  9.39$  2.54$
  Q  0.6645  7.45$  9.01$  1.09$
  Q  -1.3290  7.06$  9.28$  1.77$
  Q  0.6645  17.29$  7.11$  5.47$
  Q  0.6645  17.44$  8.04$  6.81$
  Q  -1.3290  17.2$  7.79$  6$
  Q  0.6645  8.04$  15.08$  16.3$
  Q  0.6645  7.11$  13.79$  16.28$
  Q  -1.3290  7.81$  14.23$  16.39$
  Q  0.6645  7.58$  19.33$  15.96$
  Q  0.6645  6.75$  18.87$  14.68$
  Q  -1.3290  7.12$  18.8$  15.47$
  Q  0.6645  18.36$  4.64$  8.05$
  Q  0.6645  18.64$  4.36$  6.59$
  Q  -1.3290  18.35$  4.18$  7.36$
  Q  0.6645  9.98$  17.42$  6.05$
  Q  0.6645  9.69$  15.94$  6.06$
  Q  -1.3290  10.12$  16.63$  5.84$
  Q  0.6645  12.92$  3.46$  9.15$
  Q  0.6645  13.13$  5.04$  9.21$
  Q  -1.3290  13.12$  4.22$  9.52$
  Q  0.6645  15.91$  17.69$  11.15$
  Q  0.6645  16.41$  17.86$  12.56$
  Q  -1.3290  15.91$  17.54$  11.98$
  Q  0.6645  14.45$  2.96$  17.44$
  Q  0.6645  14.72$  2.59$  18.95$
  Q  -1.3290  14.79$  3.05$  18.21$
  Q  0.6645  6.53$  18.97$  9.8$
  Q  0.6645  7.99$  19.22$  10.32$
  Q  -1.3290  7.16$  19.38$  10.26$
  Q  0.6645  15.67$  7.06$  12.29$
  Q  0.6645  14.26$  7.54$  11.79$
  Q  -1.3290  14.94$  7.52$  12.31$
  Q  0.6645  15.11$  8.57$  5.59$
  Q  0.6645  14.91$  10.09$  5.73$
  Q  -1.3290  14.71$  9.28$  5.79$
  Q  0.6645  15.03$  14.99$  5.34$
  Q  0.6645  13.74$  15.73$  5.18$
  Q  -1.3290  14.56$  15.65$  5.1$
*
