! NoMOPrint PrintBasis #MINIPRINT SMALLPRINT LARGEPRINT
! ALLPOP XYZFILE
#! BP86 3-21G   TightSCF
! ENGRAD
! B3LYP NormalPNO PModel #DecontractAux
#! VerySlowConv 
 %maxcore 5000
 %scf  maxiter   500  end 

%pal
    nprocs 32
end

%basis
    NewGTO O    # New basis for oxygen
        "aug-cc-pVTZ"
    end
    NewGTO C    # New basis for carbon
        "aug-cc-pVTZ"
    end
    NewGTO H    # New basis for hydrogen
        "cc-pVTZ"
    end
end

* xyz 0   1
  C  9.59  10.42  10.76  #1
  H  9.59  10.49  11.87  #2
  H  9.78  9.36  10.57  #3
  C  10.59  11.42  10.27  #4
  H  10.99  11.1  9.26  #5
  H  10  12.34  10.22  #6
  C  11.8  11.55  11.15  #7
  H  11.65  12.05  12.11  #8
  H  12.57  12.24  10.74  #9
  C  12.37  10.22  11.46  #10
  H  12.72  9.7  10.56  #11
  H  11.6  9.71  11.99  #12
  O  13.47  10.26  12.43  #13
  H  14.08  10.92  12.23  #14
  O  8.19  10.79  10.37  #15
  H  7.61  10.28  10.86  #16
  O  16.78  10.64  11.04  #17
  H  17.51  10.6  11.66  #18
  H  16.78  11.55  10.73  #19
  O  8.04  7.31  10.41  #20
  H  7.16  6.9  10.54  #21
  H  8.07  7.3  9.44  #22
  O  8.08  10.48  7.76  #23
  H  8.34  11.32  7.38  #24
  H  8.05  10.63  8.72  #25
  O  10.56  7.11  11.52  #26
  H  10.28  7.33  12.41  #27
  H  9.7  7.17  11.01  #28
  O  8.45  13.46  13.31  #29
  H  8.28  12.52  13.28  #30
  H  7.59  13.87  13.16  #31
  O  14.38  14.94  11.39  #32
  H  13.84  14.48  12.06  #33
  H  15.2  15.19  11.91  #34
  O  7.39  12.84  6.08  #35
  H  7.64  13.47  5.42  #36
  H  6.44  12.95  6.36  #37
  O  7.19  9.06  12.43  #38
  H  7.67  8.26  12.17  #39
  H  7.81  9.54  12.93  #40
  O  12.3  14.13  13.73  #41
  H  11.55  14.46  13.19  #42
  H  11.93  13.37  14.24  #43
  O  17.12  10.11  13.95  #44
  H  16.47  9.47  13.77  #45
  H  17.82  9.66  14.49  #46
  O  13.08  7.05  10.1  #47
  H  12.23  7.27  10.58  #48
  H  12.79  6.26  9.66  #49
  O  9.82  7.48  14.06  #50
  H  10.66  7.32  14.58  #51
  H  9.03  7.11  14.57  #52
  O  10.37  15.04  11.9  #53
  H  10.12  14.59  11.09  #54
  H  9.64  14.81  12.52  #55
  O  5.58  14.63  12.98  #56
  H  5.25  15.49  13.28  #57
  H  4.87  13.98  13.07  #58
  O  11.76  11.99  15.07  #59
  H  11.1  11.45  14.6  #60
  H  12.63  11.53  15.06  #61
  O  6.12  7.19  8.17  #62
  H  5.68  7.63  8.92  #63
  H  5.96  6.19  8.15  #64
  O  10.5  14.75  8.68  #65
  H  9.61  15.15  8.51  #66
  H  11.1  15.47  8.87  #67
  O  7.4  13.73  16.28  #68
  H  7.33  12.96  15.65  #69
  H  8.37  13.94  16.29  #70
  O  8.84  4.55  11.88  #71
  H  8.88  4.64  12.87  #72
  H  8.11  5.1  11.69  #73
  O  9.07  10.65  14.1  #74
  H  8.62  10.74  14.97  #75
  H  9.54  9.78  14.13  #76
  O  15.8  13.08  9.94  #77
  H  15.18  13.83  10.09  #78
  H  15.41  12.68  9.12  #79
  O  19.74  11.06  12.1  #80
  H  20.64  11.41  12.19  #81
  H  19.54  10.76  13.05  #82
  O  16.5  9.02  9.11  #83
  H  17.38  9.1  8.69  #84
  H  16.57  9.55  9.86  #85
  O  9.5  8.18  8.16  #86
  H  10.31  8.33  7.64  #87
  H  8.99  8.97  8.18  #88
  O  14.06  10.74  15.35  #89
  H  14.03  10.56  16.33  #90
  H  13.84  9.93  14.87  #91
  O  18.28  13.34  13.09  #92
  H  18.72  12.64  12.54  #93
  H  17.92  12.98  13.88  #94
  O  14.03  8.6  8.01  #95
  H  13.57  8.07  8.68  #96
  H  14.95  8.6  8.37  #97
  O  6.55  13.4  9.67  #98
  H  6.11  12.98  8.86  #99
  H  6.9  12.65  10.11  #100
  O  14.17  8.25  13.92  #101
  H  13.97  8.87  13.19  #102
  H  14.55  7.53  13.45  #103
  O  5.49  11.19  7.89  #104
  H  4.9  10.93  7.12  #105
  H  6.34  10.73  7.61  #106
  O  5.77  5.26  10.99  #107
  H  5.98  4.78  10.21  #108
  H  4.9  5.62  10.85  #109
  Q  0.6645  9.36$  18.92$  9.61$
  Q  0.6645  9.53$  19.7$  8.39$
  Q  -1.3290  9.79$  19.37$  9.09$
  Q  0.6645  4.18$  13.74$  6.82$
  Q  0.6645  4.37$  14.61$  5.66$
  Q  -1.3290  4.66$  14.18$  6.31$
  Q  0.6645  16.55$  3.88$  16.59$
  Q  0.6645  15.79$  3.14$  15.39$
  Q  -1.3290  16.13$  3.23$  16.18$
  Q  0.6645  15.32$  19.12$  6.54$
  Q  0.6645  14.49$  17.97$  6.15$
  Q  -1.3290  15.2$  18.33$  6.36$
  Q  0.6645  12.53$  13.42$  2.3$
  Q  0.6645  11.9$  14.15$  1.13$
  Q  -1.3290  12.39$  14.09$  1.82$
  Q  0.6645  18.05$  9.27$  18.33$
  Q  0.6645  18.4$  9.57$  16.85$
  Q  -1.3290  18.49$  9.61$  17.68$
  Q  0.6645  2.9$  6.81$  7.49$
  Q  0.6645  4.22$  7.35$  7.07$
  Q  -1.3290  3.46$  7.07$  6.91$
  Q  0.6645  6.11$  15.79$  11.15$
  Q  0.6645  5.51$  16.4$  9.86$
  Q  -1.3290  6.08$  16.32$  10.49$
  Q  0.6645  9.25$  20.26$  15.95$
  Q  0.6645  10.53$  19.69$  16.54$
  Q  -1.3290  9.86$  19.69$  16.02$
  Q  0.6645  20.15$  12.86$  7.72$
  Q  0.6645  19.45$  11.5$  8.05$
  Q  -1.3290  20.05$  12.09$  8.11$
  Q  0.6645  16.45$  17.26$  16.37$
  Q  0.6645  15.03$  17.54$  17.1$
  Q  -1.3290  15.88$  17.61$  16.92$
  Q  0.6645  18.08$  12.62$  5.46$
  Q  0.6645  18.17$  12.73$  3.89$
  Q  -1.3290  18.14$  13.04$  4.71$
  Q  0.6645  16.65$  4.89$  7.63$
  Q  0.6645  16.04$  3.91$  8.67$
  Q  -1.3290  16.65$  4.22$  8.15$
  Q  0.6645  9.87$  3.41$  4.9$
  Q  0.6645  10.02$  2.63$  6.32$
  Q  -1.3290  9.65$  2.89$  5.53$
  Q  0.6645  6.56$  7.63$  4.97$
  Q  0.6645  6.68$  8.23$  6.28$
  Q  -1.3290  6.51$  8.25$  5.48$
  Q  0.6645  4.55$  14.48$  18.32$
  Q  0.6645  5.73$  13.83$  17.64$
  Q  -1.3290  5.29$  14.13$  18.31$
  Q  0.6645  16.56$  17.94$  7.96$
  Q  0.6645  18.08$  17.75$  7.79$
  Q  -1.3290  17.34$  17.68$  8.2$
  Q  0.6645  13.34$  4.05$  8.91$
  Q  0.6645  12.88$  4.88$  7.74$
  Q  -1.3290  12.82$  4.54$  8.5$
  Q  0.6645  17.85$  4.39$  13.39$
  Q  0.6645  17.63$  3.65$  12.11$
  Q  -1.3290  17.5$  3.84$  12.9$
  Q  0.6645  19.33$  13.45$  16.81$
  Q  0.6645  18.05$  14.44$  16.42$
  Q  -1.3290  18.74$  14.09$  16.92$
  Q  0.6645  8$  8.92$  4.34$
  Q  0.6645  9.02$  9.92$  4.03$
  Q  -1.3290  8.58$  9.25$  3.86$
  Q  0.6645  1.24$  9.3$  4.92$
  Q  0.6645  2.05$  8.6$  6.09$
  Q  -1.3290  1.68$  9.26$  5.7$
  Q  0.6645  2.45$  12.26$  4.59$
  Q  0.6645  1.83$  12.68$  5.94$
  Q  -1.3290  1.85$  12.55$  5.07$
  Q  0.6645  9.83$  -0.53$  9.83$
  Q  0.6645  9.09$  0.54$  10.69$
  Q  -1.3290  9.51$  0.25$  10.02$
  Q  0.6645  13.25$  15.16$  14.96$
  Q  0.6645  13.68$  16.49$  15.63$
  Q  -1.3290  13.47$  15.64$  15.6$
  Q  0.6645  6.28$  3.15$  5.77$
  Q  0.6645  7.73$  3.25$  5.23$
  Q  -1.3290  6.88$  3.33$  5.2$
  Q  0.6645  2.74$  9.89$  17.83$
  Q  0.6645  2.44$  10.4$  19.31$
  Q  -1.3290  2.37$  10.37$  18.46$
  Q  0.6645  20.12$  9.02$  15.04$
  Q  0.6645  20.28$  10.31$  15.65$
  Q  -1.3290  20.03$  9.81$  15.03$
  Q  0.6645  14.8$  11.47$  18.35$
  Q  0.6645  13.34$  11.22$  18.5$
  Q  -1.3290  14.1$  11.08$  18.17$
  Q  0.6645  4.41$  13.76$  3.47$
  Q  0.6645  4.79$  12.24$  3.52$
  Q  -1.3290  4.43$  12.97$  3.21$
  Q  0.6645  8.81$  4.67$  14.99$
  Q  0.6645  7.43$  5.17$  14.64$
  Q  -1.3290  8.22$  5.24$  14.94$
  Q  0.6645  11.33$  11.45$  17.1$
  Q  0.6645  10.49$  11.79$  18.53$
  Q  -1.3290  11.04$  11.33$  17.93$
  Q  0.6645  1.76$  14.8$  14.29$
  Q  0.6645  0.44$  14.59$  13.45$
  Q  -1.3290  1.26$  14.47$  13.66$
  Q  0.6645  5.31$  15.75$  7.2$
  Q  0.6645  4.13$  16.66$  7.56$
  Q  -1.3290  4.95$  16.44$  7.51$
  Q  0.6645  12.43$  6.57$  16.32$
  Q  0.6645  13.04$  7.23$  14.94$
  Q  -1.3290  12.43$  6.86$  15.5$
  Q  0.6645  6.8$  10.31$  16.15$
  Q  0.6645  5.66$  11.21$  15.46$
  Q  -1.3290  6.47$  10.9$  15.6$
  Q  0.6645  18.08$  6.03$  10.8$
  Q  0.6645  17.44$  7.5$  10.52$
  Q  -1.3290  17.62$  6.79$  10.99$
  Q  0.6645  12.22$  11.05$  1.46$
  Q  0.6645  11.96$  11$  2.93$
  Q  -1.3290  11.84$  11.26$  2.18$
  Q  0.6645  16.12$  6.71$  5.87$
  Q  0.6645  17.29$  5.7$  5.84$
  Q  -1.3290  16.84$  6.34$  6.17$
  Q  0.6645  9.67$  4.66$  9.55$
  Q  0.6645  10.01$  4$  8.38$
  Q  -1.3290  9.49$  4.44$  8.83$
  Q  0.6645  14.4$  18.92$  15.44$
  Q  0.6645  13.01$  18.31$  14.83$
  Q  -1.3290  13.68$  18.44$  15.39$
  Q  0.6645  19.56$  14.77$  13.47$
  Q  0.6645  20.34$  15.97$  13.88$
  Q  -1.3290  20.21$  15.32$  13.42$
  Q  0.6645  16.56$  10.26$  3.41$
  Q  0.6645  15.8$  11.56$  3.19$
  Q  -1.3290  15.87$  10.74$  3.33$
  Q  0.6645  3.64$  6.72$  12.19$
  Q  0.6645  2.55$  5.61$  12.13$
  Q  -1.3290  3.06$  6.2$  11.8$
  Q  0.6645  5.22$  5.2$  16.66$
  Q  0.6645  4.96$  4.97$  15.2$
  Q  -1.3290  5$  5.44$  15.91$
  Q  0.6645  15.4$  14.91$  17.8$
  Q  0.6645  14.81$  14.66$  16.44$
  Q  -1.3290  15.37$  14.51$  17.06$
  Q  0.6645  17.15$  14.72$  12.77$
  Q  0.6645  16.85$  15.99$  11.96$
  Q  -1.3290  16.81$  15.5$  12.63$
  Q  0.6645  12.65$  19.58$  5.84$
  Q  0.6645  12.31$  19.31$  4.44$
  Q  -1.3290  12.64$  19.14$  5.16$
  Q  0.6645  10.21$  16.91$  12.43$
  Q  0.6645  9.78$  17.62$  13.74$
  Q  -1.3290  9.95$  17.56$  12.91$
  Q  0.6645  11.8$  14.69$  20.9$
  Q  0.6645  12.91$  13.51$  20.45$
  Q  -1.3290  12.59$  14.33$  20.66$
  Q  0.6645  11.43$  1.02$  10.53$
  Q  0.6645  11.73$  2.09$  11.63$
  Q  -1.3290  11.74$  1.31$  11.28$
  Q  0.6645  11.57$  8.54$  5.41$
  Q  0.6645  11.92$  7.15$  6.09$
  Q  -1.3290  11.48$  7.89$  5.94$
  Q  0.6645  14.32$  8.2$  5.93$
  Q  0.6645  14.39$  7.92$  4.46$
  Q  -1.3290  14.6$  7.78$  5.26$
  Q  0.6645  4.25$  16.51$  3.84$
  Q  0.6645  5.54$  15.79$  3.83$
  Q  -1.3290  4.75$  15.86$  3.97$
  Q  0.6645  15.01$  9.3$  18.42$
  Q  0.6645  15.95$  8.61$  19.58$
  Q  -1.3290  15.43$  8.67$  18.87$
  Q  0.6645  11.06$  11.08$  5.54$
  Q  0.6645  10.82$  12.55$  5.49$
  Q  -1.3290  10.58$  11.76$  5.52$
  Q  0.6645  1.34$  5.54$  8.74$
  Q  0.6645  2.19$  6.09$  9.83$
  Q  -1.3290  1.97$  5.98$  9.03$
  Q  0.6645  15.27$  3.31$  5.1$
  Q  0.6645  13.81$  3.62$  4.93$
  Q  -1.3290  14.46$  3.11$  5.05$
  Q  0.6645  4.19$  17.71$  13.67$
  Q  0.6645  3.58$  16.65$  14.55$
  Q  -1.3290  4.21$  16.96$  14.08$
  Q  0.6645  3.45$  11.93$  13.34$
  Q  0.6645  2.58$  13.18$  12.97$
  Q  -1.3290  3.3$  12.71$  13$
  Q  0.6645  5.99$  2.07$  11.79$
  Q  0.6645  4.78$  1.87$  10.97$
  Q  -1.3290  5.22$  1.85$  11.67$
  Q  0.6645  3.34$  15.99$  10.93$
  Q  0.6645  3.23$  16.6$  12.28$
  Q  -1.3290  2.96$  16.41$  11.52$
  Q  0.6645  10.35$  1.76$  8.58$
  Q  0.6645  11.7$  2.21$  7.9$
  Q  -1.3290  10.85$  2.15$  7.98$
  Q  0.6645  6.22$  20.35$  10.99$
  Q  0.6645  5.52$  21.67$  11.61$
  Q  -1.3290  5.61$  20.84$  11.39$
  Q  0.6645  5.8$  3.5$  13.55$
  Q  0.6645  5.83$  4.84$  12.73$
  Q  -1.3290  6.04$  4.31$  13.38$
  Q  0.6645  21.21$  9.48$  8.22$
  Q  0.6645  21.85$  9.26$  6.86$
  Q  -1.3290  21.19$  9.33$  7.38$
  Q  0.6645  10.26$  5.84$  17.78$
  Q  0.6645  9.7$  7.12$  18.44$
  Q  -1.3290  10.28$  6.68$  18$
  Q  0.6645  11.19$  17.61$  5.05$
  Q  0.6645  11.19$  16.7$  3.86$
  Q  -1.3290  10.84$  17.08$  4.51$
  Q  0.6645  14.53$  0.44$  9.91$
  Q  0.6645  13.81$  0.9$  11.11$
  Q  -1.3290  14.48$  0.69$  10.7$
  Q  0.6645  9.7$  5.73$  5.11$
  Q  0.6645  10.46$  6.3$  3.84$
  Q  -1.3290  10.26$  5.73$  4.42$
  Q  0.6645  9.8$  9.89$  17.53$
  Q  0.6645  9.54$  8.47$  16.77$
  Q  -1.3290  9.41$  9.28$  17.07$
  Q  0.6645  9.45$  16.29$  15.89$
  Q  0.6645  9.61$  17.91$  15.66$
  Q  -1.3290  9.4$  17.07$  15.46$
  Q  0.6645  1.52$  12.72$  10.79$
  Q  0.6645  2.98$  12.64$  11.06$
  Q  -1.3290  2.3$  12.47$  10.6$
  Q  0.6645  13.29$  9.53$  4.18$
  Q  0.6645  13.14$  10.97$  4.84$
  Q  -1.3290  12.86$  10.22$  4.52$
  Q  0.6645  16.4$  5.86$  19.52$
  Q  0.6645  17.94$  5.52$  19.53$
  Q  -1.3290  17.22$  5.89$  19.81$
  Q  0.6645  21.26$  7.14$  10.3$
  Q  0.6645  20.8$  5.86$  11.14$
  Q  -1.3290  21.25$  6.29$  10.54$
  Q  0.6645  11.28$  15.19$  5.28$
  Q  0.6645  11.36$  14.5$  6.7$
  Q  -1.3290  11.45$  14.56$  5.85$
  Q  0.6645  6.51$  0.29$  8.72$
  Q  0.6645  7.95$  0.71$  8.91$
  Q  -1.3290  7.19$  0.73$  8.56$
  Q  0.6645  11.95$  4.52$  10.73$
  Q  0.6645  10.72$  4.31$  11.49$
  Q  -1.3290  11.5$  4.16$  11.32$
  Q  0.6645  4.89$  14.29$  9.97$
  Q  0.6645  3.33$  14.08$  9.6$
  Q  -1.3290  4.03$  14.49$  9.89$
  Q  0.6645  13.12$  13.58$  5.55$
  Q  0.6645  14.38$  13.1$  4.8$
  Q  -1.3290  13.75$  13.03$  5.4$
  Q  0.6645  8.45$  8.72$  19.28$
  Q  0.6645  7.66$  8.19$  20.54$
  Q  -1.3290  8.09$  8.13$  19.79$
  Q  0.6645  5.05$  9.83$  9.21$
  Q  0.6645  4.04$  9.16$  10.09$
  Q  -1.3290  4.79$  9.21$  9.67$
  Q  0.6645  7.49$  4.06$  8.62$
  Q  0.6645  6.09$  3.51$  8.24$
  Q  -1.3290  6.62$  4.05$  8.63$
  Q  0.6645  8.42$  12.52$  19.54$
  Q  0.6645  9.14$  13.8$  18.91$
  Q  -1.3290  9.05$  13.06$  19.34$
  Q  0.6645  13.99$  1.18$  7.92$
  Q  0.6645  13.51$  2.09$  6.74$
  Q  -1.3290  13.47$  1.72$  7.5$
  Q  0.6645  6.52$  12.38$  20.88$
  Q  0.6645  6.28$  12.58$  19.36$
  Q  -1.3290  6.57$  12.19$  20.06$
  Q  0.6645  18.61$  14.37$  18.77$
  Q  0.6645  18.58$  14.56$  20.46$
  Q  -1.3290  18.87$  14.35$  19.66$
  Q  0.6645  6.2$  7.36$  16.53$
  Q  0.6645  6.92$  8.18$  17.6$
  Q  -1.3290  6.32$  8.02$  17.05$
  Q  0.6645  17.45$  11.57$  17.86$
  Q  0.6645  16.81$  12.81$  18.22$
  Q  -1.3290  16.86$  11.98$  18.24$
  Q  0.6645  14.37$  5.35$  18.37$
  Q  0.6645  14.49$  6.73$  19.1$
  Q  -1.3290  14.67$  5.9$  18.96$
  Q  0.6645  17.43$  16.25$  14.24$
  Q  0.6645  18.63$  16.57$  15.33$
  Q  -1.3290  17.88$  16.24$  15.02$
  Q  0.6645  16.37$  19.37$  12.11$
  Q  0.6645  15.69$  20.72$  12.22$
  Q  -1.3290  16.29$  20.18$  12.33$
  Q  0.6645  7.48$  16.55$  8.61$
  Q  0.6645  7.33$  15.07$  8.86$
  Q  -1.3290  7.71$  15.75$  8.53$
  Q  0.6645  7.26$  19.15$  14.14$
  Q  0.6645  7.11$  19.87$  12.85$
  Q  -1.3290  7.1$  19.81$  13.7$
  Q  0.6645  3.88$  2.52$  6.76$
  Q  0.6645  4.28$  3.95$  6.99$
  Q  -1.3290  4.28$  3.13$  7.16$
  Q  0.6645  4.19$  8.79$  16.59$
  Q  0.6645  2.8$  8.25$  16.24$
  Q  -1.3290  3.38$  8.83$  16.4$
  Q  0.6645  20.8$  9.52$  10.82$
  Q  0.6645  22.29$  9.29$  10.4$
  Q  -1.3290  21.42$  9.17$  10.37$
  Q  0.6645  13.21$  11.31$  21.3$
  Q  0.6645  11.78$  11.51$  20.55$
  Q  -1.3290  12.63$  11.62$  20.72$
  Q  0.6645  13.93$  4.14$  16.36$
  Q  0.6645  12.49$  4.2$  17$
  Q  -1.3290  13.28$  4.5$  16.79$
  Q  0.6645  19.09$  3.22$  10.46$
  Q  0.6645  18.04$  3.94$  9.55$
  Q  -1.3290  18.56$  3.84$  10.28$
  Q  0.6645  8.41$  1.26$  12.48$
  Q  0.6645  8.21$  2.52$  11.95$
  Q  -1.3290  8.13$  1.75$  11.9$
  Q  0.6645  14.66$  2.82$  10.51$
  Q  0.6645  14.81$  4.27$  11.12$
  Q  -1.3290  14.73$  3.65$  10.5$
  Q  0.6645  19.59$  9.72$  5.04$
  Q  0.6645  20.56$  10.33$  6.08$
  Q  -1.3290  20.09$  10.34$  5.33$
  Q  0.6645  9.7$  2.03$  14.77$
  Q  0.6645  10.69$  3.19$  14.7$
  Q  -1.3290  9.96$  2.81$  14.89$
  Q  0.6645  15.56$  16.15$  19.97$
  Q  0.6645  14.45$  15.1$  19.89$
  Q  -1.3290  15.15$  15.48$  19.64$
  Q  0.6645  11.95$  4.44$  13.18$
  Q  0.6645  12.48$  4.91$  14.64$
  Q  -1.3290  12.16$  4.35$  13.99$
  Q  0.6645  19.44$  6.68$  12.23$
  Q  0.6645  20.1$  6.35$  13.4$
  Q  -1.3290  19.8$  6.15$  12.69$
  Q  0.6645  14.68$  10.44$  1.63$
  Q  0.6645  15.19$  11.25$  0.68$
  Q  -1.3290  14.59$  10.8$  0.93$
  Q  0.6645  16.1$  8.34$  17.22$
  Q  0.6645  16.16$  8.9$  15.67$
  Q  -1.3290  16.29$  8.39$  16.37$
  Q  0.6645  13.81$  16.53$  10.91$
  Q  0.6645  13.17$  17.84$  11.51$
  Q  -1.3290  13.43$  17.3$  10.89$
  Q  0.6645  2.7$  3.85$  13.83$
  Q  0.6645  1.17$  3.98$  13.74$
  Q  -1.3290  1.96$  4.26$  13.71$
  Q  0.6645  6.93$  19.35$  6.52$
  Q  0.6645  7.02$  18.28$  5.41$
  Q  -1.3290  6.84$  19.04$  5.74$
  Q  0.6645  11.45$  18.28$  8.51$
  Q  0.6645  12.58$  17.41$  9.09$
  Q  -1.3290  12.04$  17.68$  8.5$
  Q  0.6645  2.35$  10.45$  10.61$
  Q  0.6645  2.41$  9.22$  11.61$
  Q  -1.3290  2.31$  9.64$  10.84$
  Q  0.6645  2.52$  12.5$  8.58$
  Q  0.6645  1.95$  13.7$  7.98$
  Q  -1.3290  2.41$  13.03$  7.97$
  Q  0.6645  10.83$  9.08$  20.71$
  Q  0.6645  9.71$  10.23$  21.12$
  Q  -1.3290  10.46$  9.87$  20.78$
  Q  0.6645  14.46$  11.92$  7.06$
  Q  0.6645  14.19$  10.82$  8.13$
  Q  -1.3290  14.65$  11.41$  7.73$
  Q  0.6645  3.39$  12.74$  16.13$
  Q  0.6645  4.2$  13.38$  15.05$
  Q  -1.3290  4.07$  12.85$  15.66$
  Q  0.6645  5.94$  19.79$  8.58$
  Q  0.6645  5.73$  18.45$  8.05$
  Q  -1.3290  6.18$  19.04$  8.42$
  Q  0.6645  16.41$  17.51$  4.97$
  Q  0.6645  17.69$  17.27$  4.22$
  Q  -1.3290  16.86$  17.26$  4.28$
  Q  0.6645  7.5$  17.23$  15.53$
  Q  0.6645  5.91$  17.35$  15.52$
  Q  -1.3290  6.73$  17.54$  15.72$
  Q  0.6645  6.41$  13.87$  0.95$
  Q  0.6645  6.6$  12.91$  2.14$
  Q  -1.3290  6.77$  13.26$  1.39$
  Q  0.6645  10.19$  3.3$  16.97$
  Q  0.6645  10.13$  3.87$  18.45$
  Q  -1.3290  10.43$  3.76$  17.65$
  Q  0.6645  5.45$  6.02$  3.84$
  Q  0.6645  6.53$  6.19$  2.86$
  Q  -1.3290  6$  6.47$  3.45$
  Q  0.6645  0.4$  12.54$  13.78$
  Q  0.6645  -0.2$  11.16$  14.1$
  Q  -1.3290  0.34$  11.67$  13.76$
  Q  0.6645  12.31$  19.74$  12.91$
  Q  0.6645  11.55$  18.46$  12.82$
  Q  -1.3290  12.22$  18.92$  12.83$
  Q  0.6645  15.29$  3.46$  13.04$
  Q  0.6645  13.85$  3.61$  13.61$
  Q  -1.3290  14.61$  3.25$  13.52$
  Q  0.6645  10.29$  15.31$  17.7$
  Q  0.6645  8.95$  16.05$  17.9$
  Q  -1.3290  9.46$  15.47$  17.56$
  Q  0.6645  15.43$  13.87$  2.72$
  Q  0.6645  16.15$  13.69$  4.25$
  Q  -1.3290  15.66$  13.48$  3.52$
  Q  0.6645  19.22$  8.29$  6.94$
  Q  0.6645  17.78$  8.03$  6.43$
  Q  -1.3290  18.42$  8.5$  6.69$
  Q  0.6645  17.71$  10.35$  6.75$
  Q  0.6645  16.73$  11.36$  7.46$
  Q  -1.3290  17.44$  11.13$  7.01$
  Q  0.6645  4.28$  5.85$  5.72$
  Q  0.6645  5.82$  5.28$  5.59$
  Q  -1.3290  4.95$  5.29$  5.58$
  Q  0.6645  8.52$  14.22$  2.56$
  Q  0.6645  9.68$  13.84$  3.49$
  Q  -1.3290  8.9$  14.07$  3.31$
  Q  0.6645  18.32$  5.62$  17.01$
  Q  0.6645  17.07$  6.45$  16.51$
  Q  -1.3290  17.66$  5.82$  16.49$
  Q  0.6645  9.02$  16.46$  5.6$
  Q  0.6645  8.04$  15.68$  6.51$
  Q  -1.3290  8.31$  16.06$  5.79$
  Q  0.6645  1.82$  5.68$  17.51$
  Q  0.6645  3.21$  6.21$  17.31$
  Q  -1.3290  2.52$  6.04$  17.75$
  Q  0.6645  19.62$  15.87$  10.25$
  Q  0.6645  20.21$  16.01$  11.62$
  Q  -1.3290  20.21$  16.09$  10.78$
  Q  0.6645  7.37$  17.38$  17.75$
  Q  0.6645  7.33$  17.01$  19.19$
  Q  -1.3290  7.72$  17.27$  18.49$
  Q  0.6645  13.42$  6.07$  5.28$
  Q  0.6645  12.04$  5.48$  5.14$
  Q  -1.3290  12.75$  5.65$  5.57$
  Q  0.6645  5.19$  9.75$  2.36$
  Q  0.6645  5.3$  8.43$  2.94$
  Q  -1.3290  5$  8.98$  2.43$
  Q  0.6645  10.73$  7.76$  1.41$
  Q  0.6645  9.92$  8.25$  2.76$
  Q  -1.3290  10.55$  7.9$  2.24$
  Q  0.6645  20.83$  11.92$  17.51$
  Q  0.6645  21.5$  12.6$  16.4$
  Q  -1.3290  20.86$  12.2$  16.74$
  Q  0.6645  1.77$  6.46$  14.15$
  Q  0.6645  2.17$  7.97$  14.01$
  Q  -1.3290  1.89$  7.27$  14.38$
  Q  0.6645  16.82$  18.28$  10.06$
  Q  0.6645  15.36$  17.9$  10.59$
  Q  -1.3290  16.18$  18.11$  10.64$
  Q  0.6645  11.56$  17.09$  19.22$
  Q  0.6645  10.57$  18.29$  19.24$
  Q  -1.3290  11.23$  17.81$  19.49$
  Q  0.6645  11.71$  17.41$  1.9$
  Q  0.6645  12.48$  16.02$  2.29$
  Q  -1.3290  12.28$  16.89$  2.34$
  Q  0.6645  19.56$  10.86$  18.75$
  Q  0.6645  19.61$  12.25$  19.26$
  Q  -1.3290  19.92$  11.49$  19.13$
  Q  0.6645  8.41$  11.86$  1.13$
  Q  0.6645  9.95$  11.41$  1.28$
  Q  -1.3290  9.12$  11.37$  1.02$
  Q  0.6645  8.5$  18.72$  11.55$
  Q  0.6645  7.35$  18.22$  10.69$
  Q  -1.3290  7.84$  18.79$  11.07$
  Q  0.6645  7.42$  17.71$  3.15$
  Q  0.6645  7.59$  16.39$  4.03$
  Q  -1.3290  7.25$  16.9$  3.43$
  Q  0.6645  1.99$  10.47$  13.39$
  Q  0.6645  2.8$  9.76$  14.54$
  Q  -1.3290  2.6$  9.94$  13.72$
  Q  0.6645  8.8$  7.17$  6.58$
  Q  0.6645  8.54$  5.81$  7.24$
  Q  -1.3290  8.59$  6.35$  6.59$
  Q  0.6645  20.65$  12.41$  10.06$
  Q  0.6645  20.55$  13.65$  10.98$
  Q  -1.3290  20.95$  13.02$  10.57$
  Q  0.6645  13.98$  8.01$  2.26$
  Q  0.6645  12.49$  8.25$  2.59$
  Q  -1.3290  13.33$  8.15$  2.78$
  Q  0.6645  4.77$  9.77$  5.5$
  Q  0.6645  3.33$  10.02$  5.56$
  Q  -1.3290  4.13$  10.25$  5.53$
  Q  0.6645  12.36$  7.48$  21.12$
  Q  0.6645  11.48$  7.22$  19.8$
  Q  -1.3290  11.63$  7.25$  20.68$
  Q  0.6645  16.56$  12.1$  14.85$
  Q  0.6645  16.47$  13.1$  15.94$
  Q  -1.3290  16.85$  12.63$  15.39$
  Q  0.6645  7.45$  10.94$  3.27$
  Q  0.6645  6.98$  11.93$  4.28$
  Q  -1.3290  6.89$  11.46$  3.61$
  Q  0.6645  1.42$  15.45$  9.89$
  Q  0.6645  0.18$  14.56$  9.56$
  Q  -1.3290  0.86$  15.06$  9.4$
  Q  0.6645  5.13$  6.91$  14.1$
  Q  0.6645  5.76$  8.02$  13.33$
  Q  -1.3290  5.17$  7.48$  13.49$
  Q  0.6645  20.06$  6.47$  8.84$
  Q  0.6645  18.78$  6.46$  7.94$
  Q  -1.3290  19.62$  6.44$  8.14$
  Q  0.6645  20.84$  6.86$  15.47$
  Q  0.6645  19.44$  6.68$  15.54$
  Q  -1.3290  20.08$  7$  15.2$
  Q  0.6645  15.82$  6.35$  11.8$
  Q  0.6645  14.4$  6.49$  11.42$
  Q  -1.3290  14.99$  6.24$  11.92$
  Q  0.6645  17.29$  14.69$  9.41$
  Q  0.6645  17.61$  16.17$  9.33$
  Q  -1.3290  17.66$  15.41$  9.66$
  Q  0.6645  12.3$  15.64$  17.28$
  Q  0.6645  12.24$  15.08$  18.74$
  Q  -1.3290  12.01$  15.58$  18.11$
*
