! NoMOPrint PrintBasis #MINIPRINT SMALLPRINT LARGEPRINT
! ALLPOP XYZFILE
#! BP86 3-21G   TightSCF
! ENGRAD
! B3LYP NormalPNO PModel #DecontractAux
#! VerySlowConv 
 %maxcore 5000
 %scf  maxiter   500  end 

%pal
    nprocs 32
end

%basis
    NewGTO O    # New basis for oxygen
        "aug-cc-pVTZ"
    end
    NewGTO C    # New basis for carbon
        "aug-cc-pVTZ"
    end
    NewGTO H    # New basis for hydrogen
        "cc-pVTZ"
    end
end

* xyz 0   1
  C  10.25  10.67  9.05  #1
  H  9.24  10.52  9.56  #2
  H  10.71  9.78  8.77  #3
  C  11.24  11.23  10.11  #4
  H  12.25  10.96  9.76  #5
  H  11.06  12.3  10.21  #6
  C  10.96  10.55  11.5  #7
  H  11.49  9.57  11.43  #8
  H  9.95  10.33  11.67  #9
  C  11.65  11.21  12.69  #10
  H  11.75  12.31  12.46  #11
  H  12.64  10.84  12.67  #12
  O  10.93  10.81  13.94  #13
  H  11.34  11.23  14.69  #14
  O  10.05  11.63  7.97  #15
  H  9.71  11.1  7.19  #16
  O  14.57  11.63  15.71  #17
  H  14.08  10.82  15.66  #18
  H  14.12  12.38  15.33  #19
  O  10.53  13.45  5.26  #20
  H  9.85  14.15  5.28  #21
  H  9.99  12.76  5.68  #22
  O  13.06  14.18  11.44  #23
  H  13.32  14.72  10.69  #24
  H  13.77  13.94  11.99  #25
  O  9.18  11.04  5.06  #26
  H  9.62  10.23  4.78  #27
  H  8.3  10.85  5.4  #28
  O  12.21  13.85  15.13  #29
  H  12.81  14.47  15.63  #30
  H  11.66  13.48  15.77  #31
  O  14.6  11.7  10.18  #32
  H  14.34  10.77  10.43  #33
  H  13.85  12.24  10.38  #34
  O  14.62  15.75  15.03  #35
  H  14.84  15.11  14.34  #36
  H  14.09  16.51  14.73  #37
  O  8.51  15.07  5.38  #38
  H  8.48  14.93  6.37  #39
  H  7.65  14.71  5.04  #40
  O  13.33  12.86  18.28  #41
  H  13.52  12.19  18.99  #42
  H  13.46  12.35  17.49  #43
  O  13.46  12.77  5.75  #44
  H  13.79  11.9  5.76  #45
  H  12.65  12.82  6.23  #46
  O  17.3  12.19  14.95  #47
  H  16.63  12.11  15.62  #48
  H  17.66  13.05  15.03  #49
  O  10.1  8.26  3.95  #50
  H  9.26  8.63  3.66  #51
  H  10.5  8.12  3.11  #52
  O  6.64  10.77  11.67  #53
  H  7.19  9.98  11.43  #54
  H  6.99  11.5  11.12  #55
  O  12.58  15.46  17.99  #56
  H  13.36  16.04  17.87  #57
  H  12.89  14.54  17.86  #58
  O  13.37  16.2  9.67  #59
  H  14.1  15.87  9.14  #60
  H  12.57  16.22  9.19  #61
  O  14.05  8.77  10.3  #62
  H  13.86  8.22  11.08  #63
  H  14.65  8.09  9.92  #64
  O  12.84  9.07  7.46  #65
  H  12.04  8.58  7.27  #66
  H  13.15  8.9  8.35  #67
  O  9.26  14.05  8.42  #68
  H  8.64  14.04  9.13  #69
  H  9.63  13.17  8.37  #70
  O  11.4  15.77  12.92  #71
  H  12.03  15.08  12.59  #72
  H  10.86  15.3  13.5  #73
  O  16.66  11.88  17.67  #74
  H  15.82  11.51  17.32  #75
  H  17.14  11.13  18.06  #76
  O  9.14  8.77  13.78  #77
  H  8.74  8.96  12.93  #78
  H  9.71  9.54  14.07  #79
  O  8.02  8.55  10.8  #80
  H  7.66  8.54  9.86  #81
  H  8.69  7.8  10.81  #82
  O  10.31  12.81  16.93  #83
  H  10.05  13.65  17.24  #84
  H  9.5  12.58  16.36  #85
  O  13.88  8.98  15.49  #86
  H  12.93  8.82  15.71  #87
  H  14.43  8.63  16.21  #88
  O  11.36  11.91  2.82  #89
  H  11.16  12.56  3.51  #90
  H  11.85  11.24  3.26  #91
  O  7.84  12.77  2.86  #92
  H  8.36  12.42  3.61  #93
  H  7.21  13.46  3.25  #94
  O  15.31  13.66  12.85  #95
  H  15.8  14.42  12.64  #96
  H  16.07  13.12  13.21  #97
  O  7.03  10.24  6.33  #98
  H  6.37  10.82  6.68  #99
  H  6.99  9.52  6.96  #100
  Q  0.6645  17.2$  11.39$  7.3$
  Q  0.6645  17.66$  12.52$  8.33$
  Q  -1.3290  17.71$  12.04$  7.61$
  Q  0.6645  12.07$  19.11$  2.82$
  Q  0.6645  10.67$  18.37$  3.14$
  Q  -1.3290  11.47$  18.69$  3.27$
  Q  0.6645  15.26$  8.42$  20.79$
  Q  0.6645  15.96$  9.29$  21.94$
  Q  -1.3290  15.65$  8.59$  21.54$
  Q  0.6645  10.7$  8.93$  16.84$
  Q  0.6645  10.96$  7.49$  16.6$
  Q  -1.3290  11.02$  8.32$  16.42$
  Q  0.6645  1.45$  5.04$  5.96$
  Q  0.6645  2.7$  5.82$  6.37$
  Q  -1.3290  1.92$  5.58$  6.44$
  Q  0.6645  14.87$  19.5$  14.41$
  Q  0.6645  14.41$  18.67$  13.29$
  Q  -1.3290  14.94$  18.87$  13.89$
  Q  0.6645  16.34$  19.15$  9.81$
  Q  0.6645  14.89$  19.06$  10.44$
  Q  -1.3290  15.54$  19.41$  9.97$
  Q  0.6645  12.18$  3.42$  3.39$
  Q  0.6645  11.61$  4.82$  3.73$
  Q  -1.3290  11.57$  4.01$  3.52$
  Q  0.6645  15.2$  7.32$  12.79$
  Q  0.6645  14.12$  7.92$  13.71$
  Q  -1.3290  14.4$  7.44$  13.08$
  Q  0.6645  10.08$  20.86$  8.42$
  Q  0.6645  10.65$  21.89$  9.35$
  Q  -1.3290  10.45$  21.13$  9.11$
  Q  0.6645  5.25$  18.09$  13.21$
  Q  0.6645  6.52$  18.45$  13.92$
  Q  -1.3290  5.73$  18.54$  13.68$
  Q  0.6645  17.09$  12.96$  3.9$
  Q  0.6645  17.86$  13.65$  2.79$
  Q  -1.3290  17.74$  13.09$  3.41$
  Q  0.6645  5.61$  16.53$  1.8$
  Q  0.6645  5.35$  17.11$  3.18$
  Q  -1.3290  5.33$  16.5$  2.56$
  Q  0.6645  17.72$  13.4$  10.29$
  Q  0.6645  16.29$  12.82$  10.1$
  Q  -1.3290  17$  13.27$  9.88$
  Q  0.6645  8.32$  17.82$  4.51$
  Q  0.6645  7.92$  17.39$  5.84$
  Q  -1.3290  8.02$  17.96$  5.25$
  Q  0.6645  5.52$  9.43$  12.54$
  Q  0.6645  4.39$  8.85$  13.46$
  Q  -1.3290  4.97$  8.85$  12.86$
  Q  0.6645  3.97$  9.23$  21.28$
  Q  0.6645  4.1$  9.94$  19.86$
  Q  -1.3290  3.69$  9.54$  20.53$
  Q  0.6645  2.07$  8.72$  10.41$
  Q  0.6645  2.77$  8.66$  11.79$
  Q  -1.3290  2.47$  9.02$  11.11$
  Q  0.6645  4.81$  11.72$  8.08$
  Q  0.6645  5.3$  13.12$  7.6$
  Q  -1.3290  5.34$  12.29$  7.78$
  Q  0.6645  6.65$  14$  10.01$
  Q  0.6645  6.68$  12.82$  9.08$
  Q  -1.3290  6.82$  13.22$  9.81$
  Q  0.6645  3.84$  13.89$  11.64$
  Q  0.6645  4.16$  12.56$  11.09$
  Q  -1.3290  3.71$  13.08$  11.5$
  Q  0.6645  14.06$  7.92$  0.65$
  Q  0.6645  13.97$  6.32$  0.94$
  Q  -1.3290  13.76$  7.18$  1$
  Q  0.6645  11.86$  16.99$  14.78$
  Q  0.6645  11.62$  17.7$  16.13$
  Q  -1.3290  12.05$  17.51$  15.43$
  Q  0.6645  15.82$  10.61$  9.01$
  Q  0.6645  17.4$  10.45$  9.31$
  Q  -1.3290  16.59$  10.25$  8.98$
  Q  0.6645  17.95$  15.28$  13.52$
  Q  0.6645  19.31$  14.67$  13.87$
  Q  -1.3290  18.47$  14.68$  13.72$
  Q  0.6645  8.55$  8.72$  18.28$
  Q  0.6645  8.35$  10.14$  17.64$
  Q  -1.3290  8.78$  9.54$  18.05$
  Q  0.6645  6.2$  8.23$  14.25$
  Q  0.6645  7.62$  8.21$  14.55$
  Q  -1.3290  6.84$  8.03$  14.71$
  Q  0.6645  17.52$  3.09$  9.93$
  Q  0.6645  19.13$  3.4$  10.33$
  Q  -1.3290  18.35$  3.35$  9.84$
  Q  0.6645  4.96$  4.32$  5.13$
  Q  0.6645  5.35$  3.46$  3.82$
  Q  -1.3290  5.02$  4.11$  4.29$
  Q  0.6645  5.1$  9.89$  1.27$
  Q  0.6645  5.1$  8.43$  1.34$
  Q  -1.3290  4.78$  9.15$  1.14$
  Q  0.6645  7.82$  10.43$  20.31$
  Q  0.6645  8.16$  11.95$  20.01$
  Q  -1.3290  7.66$  11.27$  20.23$
  Q  0.6645  16.44$  14.89$  9.29$
  Q  0.6645  16.02$  15.35$  7.88$
  Q  -1.3290  16.03$  15.37$  8.71$
  Q  0.6645  6.95$  9.45$  2.86$
  Q  0.6645  8.04$  9.74$  1.85$
  Q  -1.3290  7.7$  9.36$  2.52$
  Q  0.6645  12.05$  4.73$  8.28$
  Q  0.6645  12.22$  5.86$  9.44$
  Q  -1.3290  11.83$  5.33$  8.87$
  Q  0.6645  14.32$  5.27$  15.18$
  Q  0.6645  15.7$  4.86$  15.83$
  Q  -1.3290  15.15$  5.03$  15.2$
  Q  0.6645  19.98$  13.66$  11.04$
  Q  0.6645  19.17$  13.45$  12.35$
  Q  -1.3290  19.35$  13.33$  11.54$
  Q  0.6645  14.45$  7.57$  2.89$
  Q  0.6645  15.86$  7.6$  3.48$
  Q  -1.3290  15.03$  7.73$  3.49$
  Q  0.6645  6.08$  18.51$  4.75$
  Q  0.6645  4.82$  17.74$  5.23$
  Q  -1.3290  5.31$  18.18$  4.68$
  Q  0.6645  12.41$  15.69$  2.28$
  Q  0.6645  12.59$  15.95$  0.77$
  Q  -1.3290  12.19$  15.99$  1.5$
  Q  0.6645  9.15$  16.46$  2.87$
  Q  0.6645  8.3$  17.55$  2.19$
  Q  -1.3290  8.89$  17.25$  2.71$
  Q  0.6645  0.7$  8.3$  8.55$
  Q  0.6645  1.63$  7.14$  8.04$
  Q  -1.3290  1.37$  7.77$  8.55$
  Q  0.6645  7.9$  3.34$  4.99$
  Q  0.6645  7.93$  1.85$  4.63$
  Q  -1.3290  7.99$  2.51$  5.13$
  Q  0.6645  18.34$  9.07$  18.71$
  Q  0.6645  19.19$  10.13$  19.32$
  Q  -1.3290  18.5$  9.85$  18.96$
  Q  0.6645  17.93$  10.54$  14.27$
  Q  0.6645  18.96$  9.36$  14.39$
  Q  -1.3290  18.34$  9.83$  14.02$
  Q  0.6645  6.89$  2.25$  10.08$
  Q  0.6645  8.51$  2.17$  9.84$
  Q  -1.3290  7.73$  2.05$  10.21$
  Q  0.6645  7.69$  7.49$  19.74$
  Q  0.6645  8.6$  6.6$  18.75$
  Q  -1.3290  7.88$  6.97$  19.07$
  Q  0.6645  4.26$  13.37$  19.41$
  Q  0.6645  2.85$  13.02$  18.94$
  Q  -1.3290  3.7$  13.14$  18.87$
  Q  0.6645  17.27$  8.08$  13.11$
  Q  0.6645  17.32$  7.37$  11.76$
  Q  -1.3290  17.16$  7.43$  12.6$
  Q  0.6645  11.46$  6.57$  7.39$
  Q  0.6645  10.19$  6.98$  6.56$
  Q  -1.3290  11.02$  6.98$  6.8$
  Q  0.6645  20.81$  9.91$  9.71$
  Q  0.6645  20.48$  8.38$  9.75$
  Q  -1.3290  20.81$  9.11$  9.4$
  Q  0.6645  9.65$  1.4$  12.96$
  Q  0.6645  8.56$  1.96$  11.98$
  Q  -1.3290  8.93$  1.79$  12.73$
  Q  0.6645  0.76$  10.08$  4.87$
  Q  0.6645  1.97$  10.95$  4.41$
  Q  -1.3290  1.39$  10.69$  4.91$
  Q  0.6645  15.97$  16.14$  16.05$
  Q  0.6645  17.3$  16.91$  16.27$
  Q  -1.3290  16.67$  16.39$  16.47$
  Q  0.6645  20.24$  7.91$  12.14$
  Q  0.6645  21.15$  9.05$  12.54$
  Q  -1.3290  20.67$  8.41$  12.67$
  Q  0.6645  3.81$  9.47$  7.92$
  Q  0.6645  3.42$  9.92$  6.53$
  Q  -1.3290  3.88$  9.52$  7.1$
  Q  0.6645  13.61$  6.93$  4.82$
  Q  0.6645  11.97$  6.88$  5.16$
  Q  -1.3290  12.78$  6.67$  4.8$
  Q  0.6645  9.48$  18.61$  11.72$
  Q  0.6645  8.99$  20.06$  11.52$
  Q  -1.3290  9.32$  19.42$  11.95$
  Q  0.6645  2.7$  10.82$  8.79$
  Q  0.6645  3.28$  10.43$  10.02$
  Q  -1.3290  3.28$  10.87$  9.33$
  Q  0.6645  3.42$  17.33$  6.89$
  Q  0.6645  3.16$  16.34$  5.76$
  Q  -1.3290  3.65$  16.82$  6.26$
  Q  0.6645  5.11$  3.53$  9.13$
  Q  0.6645  4.77$  2.05$  9.05$
  Q  -1.3290  5.29$  2.73$  8.98$
  Q  0.6645  6.18$  10.9$  18.94$
  Q  0.6645  4.74$  11.42$  18.5$
  Q  -1.3290  5.34$  10.87$  18.74$
  Q  0.6645  12.92$  14.2$  4.35$
  Q  0.6645  13.85$  14.34$  2.97$
  Q  -1.3290  13.24$  14.53$  3.6$
  Q  0.6645  7.29$  7.3$  7.67$
  Q  0.6645  5.9$  7.88$  8.07$
  Q  -1.3290  6.76$  7.84$  8.03$
  Q  0.6645  13.67$  1.49$  10.49$
  Q  0.6645  12.7$  1.84$  11.7$
  Q  -1.3290  13.15$  1.96$  10.96$
  Q  0.6645  6.19$  1.83$  15.57$
  Q  0.6645  6.53$  3.31$  15.57$
  Q  -1.3290  6.02$  2.66$  15.69$
  Q  0.6645  9.79$  11.01$  -0.26$
  Q  0.6645  10.14$  11.14$  1.26$
  Q  -1.3290  9.88$  10.74$  0.54$
  Q  0.6645  9.88$  3.26$  18.03$
  Q  0.6645  11.18$  3.71$  17.24$
  Q  -1.3290  10.35$  3.73$  17.46$
  Q  0.6645  6.71$  9.38$  15.98$
  Q  0.6645  6.06$  10.37$  16.97$
  Q  -1.3290  6.46$  10.14$  16.26$
  Q  0.6645  8.98$  19.27$  6.82$
  Q  0.6645  9.94$  20.32$  6.14$
  Q  -1.3290  9.39$  20.01$  6.72$
  Q  0.6645  12.22$  20.39$  8.38$
  Q  0.6645  12.84$  20.96$  7.09$
  Q  -1.3290  12.83$  20.69$  7.88$
  Q  0.6645  11.81$  7.57$  1.14$
  Q  0.6645  10.95$  8.85$  0.89$
  Q  -1.3290  11.12$  8.05$  1.14$
  Q  0.6645  11.94$  6.95$  20.98$
  Q  0.6645  11.5$  5.46$  21.09$
  Q  -1.3290  11.75$  6.18$  20.66$
  Q  0.6645  6.21$  19.32$  8.8$
  Q  0.6645  7.21$  19.46$  9.9$
  Q  -1.3290  6.7$  19.02$  9.36$
  Q  0.6645  9.36$  4.94$  8.95$
  Q  0.6645  9.44$  3.97$  7.86$
  Q  -1.3290  9.03$  4.39$  8.44$
  Q  0.6645  13.7$  5.67$  11.76$
  Q  0.6645  13.14$  4.21$  11.61$
  Q  -1.3290  13.13$  5.07$  11.54$
  Q  0.6645  14.02$  9.49$  6.27$
  Q  0.6645  14.9$  9.46$  4.88$
  Q  -1.3290  14.65$  9.72$  5.71$
  Q  0.6645  2.06$  15.35$  3.3$
  Q  0.6645  3.49$  15.99$  3.38$
  Q  -1.3290  2.74$  15.71$  3.65$
  Q  0.6645  4.1$  10.97$  3.82$
  Q  0.6645  3.65$  12.39$  4.28$
  Q  -1.3290  3.67$  11.71$  3.77$
  Q  0.6645  6.6$  8.39$  21.5$
  Q  0.6645  8.2$  8.53$  21.58$
  Q  -1.3290  7.43$  8.52$  21.21$
  Q  0.6645  10.65$  17.07$  10.3$
  Q  0.6645  10.53$  16.64$  11.71$
  Q  -1.3290  10.27$  17.04$  11.04$
  Q  0.6645  7.89$  14.11$  14.07$
  Q  0.6645  7.38$  13.05$  13.05$
  Q  -1.3290  7.5$  13.83$  13.35$
  Q  0.6645  15.22$  2.41$  6.64$
  Q  0.6645  14.59$  1.9$  7.94$
  Q  -1.3290  14.58$  2.18$  7.16$
  Q  0.6645  15.3$  13.78$  5.76$
  Q  0.6645  16.73$  13.59$  6.23$
  Q  -1.3290  16.11$  13.98$  5.81$
  Q  0.6645  17.74$  10.97$  2.8$
  Q  0.6645  16.26$  10.69$  2.67$
  Q  -1.3290  17.08$  10.54$  2.49$
  Q  0.6645  15.98$  5.21$  5.86$
  Q  0.6645  16.53$  6.57$  6.53$
  Q  -1.3290  16.16$  5.8$  6.51$
  Q  0.6645  19.54$  16.9$  12.43$
  Q  0.6645  18.96$  17.39$  13.77$
  Q  -1.3290  19.54$  17.08$  13.24$
  Q  0.6645  7.42$  15.48$  18.21$
  Q  0.6645  8.4$  14.77$  19.09$
  Q  -1.3290  7.82$  14.8$  18.51$
  Q  0.6645  4.02$  15.66$  12.78$
  Q  0.6645  5.08$  15.75$  11.65$
  Q  -1.3290  4.33$  15.69$  11.97$
  Q  0.6645  14.05$  17.72$  16.56$
  Q  0.6645  15.32$  17.59$  17.5$
  Q  -1.3290  14.48$  17.58$  17.3$
  Q  0.6645  9.9$  7.05$  14.5$
  Q  0.6645  9.24$  5.48$  14.61$
  Q  -1.3290  9.76$  6.17$  14.33$
  Q  0.6645  3.85$  6.62$  3.88$
  Q  0.6645  2.48$  7.43$  3.73$
  Q  -1.3290  3.29$  7.27$  4.02$
  Q  0.6645  13.18$  17.49$  6.56$
  Q  0.6645  12.2$  17.16$  5.39$
  Q  -1.3290  12.43$  17.41$  6.17$
  Q  0.6645  5.78$  6.24$  0.93$
  Q  0.6645  6.87$  6.94$  1.81$
  Q  -1.3290  6.11$  6.86$  1.4$
  Q  0.6645  18.79$  6.53$  18.19$
  Q  0.6645  18.06$  7.39$  17.15$
  Q  -1.3290  18.26$  7.11$  17.92$
  Q  0.6645  12.94$  18.66$  11.57$
  Q  0.6645  13.63$  17.41$  10.99$
  Q  -1.3290  13.55$  18.12$  11.49$
  Q  0.6645  10.57$  15.37$  8.6$
  Q  0.6645  11.34$  16.51$  7.62$
  Q  -1.3290  11.01$  16.13$  8.36$
  Q  0.6645  3.67$  7.06$  16.85$
  Q  0.6645  2.31$  7.58$  17.31$
  Q  -1.3290  2.88$  7.36$  16.73$
  Q  0.6645  9.02$  15.26$  21.85$
  Q  0.6645  8.9$  16.32$  20.73$
  Q  -1.3290  9.15$  15.59$  21.09$
  Q  0.6645  7.73$  4.63$  10.17$
  Q  0.6645  7.91$  5.39$  11.38$
  Q  -1.3290  7.42$  5.04$  10.84$
  Q  0.6645  11.17$  15.64$  17.32$
  Q  0.6645  9.92$  16.5$  17.55$
  Q  -1.3290  10.36$  15.86$  17.19$
  Q  0.6645  3.84$  12.51$  1.57$
  Q  0.6645  3.02$  12.67$  0.44$
  Q  -1.3290  3.55$  12.93$  0.96$
  Q  0.6645  21$  8.59$  15.95$
  Q  0.6645  20.48$  8.23$  14.59$
  Q  -1.3290  20.44$  8.22$  15.42$
  Q  0.6645  7.49$  17.44$  8.61$
  Q  0.6645  8.89$  16.62$  8.51$
  Q  -1.3290  8.03$  16.79$  8.37$
  Q  0.6645  5.76$  9.71$  4.93$
  Q  0.6645  4.79$  8.74$  4.09$
  Q  -1.3290  5.32$  9.41$  4.25$
  Q  0.6645  3.15$  9.04$  15.75$
  Q  0.6645  4.44$  9.91$  15.36$
  Q  -1.3290  3.67$  9.57$  15.28$
  Q  0.6645  16.14$  15.15$  2.34$
  Q  0.6645  15.71$  14.44$  0.89$
  Q  -1.3290  16$  14.5$  1.73$
  Q  0.6645  16.6$  7.02$  9.34$
  Q  0.6645  16.99$  8.44$  9.62$
  Q  -1.3290  17.05$  7.62$  9.73$
  Q  0.6645  11.86$  18.99$  14.31$
  Q  0.6645  11.01$  19.48$  13.08$
  Q  -1.3290  11.72$  19.41$  13.55$
  Q  0.6645  5.72$  15.12$  3.58$
  Q  0.6645  5.19$  13.94$  4.52$
  Q  -1.3290  5.77$  14.46$  4.17$
  Q  0.6645  10.27$  15.06$  1.48$
  Q  0.6645  9.07$  14.02$  1.96$
  Q  -1.3290  9.46$  14.76$  1.69$
  Q  0.6645  11.65$  -0.39$  13.29$
  Q  0.6645  12.1$  1.01$  13.89$
  Q  -1.3290  11.6$  0.41$  13.5$
  Q  0.6645  8.86$  5.41$  1.03$
  Q  0.6645  9.38$  6.84$  1.6$
  Q  -1.3290  8.94$  6.07$  1.58$
  Q  0.6645  0.27$  11.29$  7.97$
  Q  0.6645  1.21$  11.22$  6.67$
  Q  -1.3290  1.01$  11.3$  7.52$
  Q  0.6645  18.86$  11.5$  11.35$
  Q  0.6645  18.79$  10.15$  11.84$
  Q  -1.3290  18.77$  10.68$  11.22$
  Q  0.6645  10.66$  6.4$  19.1$
  Q  0.6645  10.44$  5.52$  17.88$
  Q  -1.3290  10.29$  6.17$  18.37$
  Q  0.6645  7.15$  16.25$  10.27$
  Q  0.6645  7.44$  15.65$  11.67$
  Q  -1.3290  6.96$  15.89$  11.02$
  Q  0.6645  12.37$  9.77$  19.9$
  Q  0.6645  11.09$  9.33$  19.22$
  Q  -1.3290  11.86$  9.22$  19.57$
  Q  0.6645  13.5$  3.99$  17.68$
  Q  0.6645  13.24$  3.25$  16.4$
  Q  -1.3290  13.11$  3.44$  17.2$
  Q  0.6645  10.76$  6.32$  11.28$
  Q  0.6645  9.94$  6.44$  12.45$
  Q  -1.3290  10.08$  6.55$  11.67$
  Q  0.6645  15.18$  18.49$  7.99$
  Q  0.6645  15.98$  17.86$  6.86$
  Q  -1.3290  15.27$  18.17$  7.22$
  Q  0.6645  18.92$  8.54$  6.91$
  Q  0.6645  20.19$  8.76$  7.76$
  Q  -1.3290  19.73$  8.47$  7.09$
  Q  0.6645  18.76$  7.03$  10.35$
  Q  0.6645  19.86$  6.04$  10.5$
  Q  -1.3290  19.54$  6.82$  10.54$
  Q  0.6645  16.17$  4.08$  18.07$
  Q  0.6645  16.85$  5.44$  17.87$
  Q  -1.3290  16.61$  4.68$  17.68$
  Q  0.6645  9.8$  2.51$  5.99$
  Q  0.6645  11.18$  3.11$  6.28$
  Q  -1.3290  10.48$  2.69$  6.43$
  Q  0.6645  13.4$  8.47$  18.85$
  Q  0.6645  14.34$  7.18$  18.74$
  Q  -1.3290  14.1$  8.02$  18.65$
  Q  0.6645  16.39$  12.98$  20.81$
  Q  0.6645  16.94$  14.17$  20.1$
  Q  -1.3290  16.52$  13.78$  20.7$
  Q  0.6645  1.64$  10.24$  0.83$
  Q  0.6645  2.77$  9.57$  1.76$
  Q  -1.3290  2.01$  9.94$  1.56$
  Q  0.6645  6.6$  5$  4.02$
  Q  0.6645  7.98$  5.29$  3.26$
  Q  -1.3290  7.43$  5.05$  3.91$
  Q  0.6645  1.04$  10.11$  11.68$
  Q  0.6645  0.33$  11.54$  11.8$
  Q  -1.3290  0.43$  10.69$  11.91$
  Q  0.6645  12.99$  4.92$  6.01$
  Q  0.6645  13.39$  3.61$  6.72$
  Q  -1.3290  12.93$  4.33$  6.6$
  Q  0.6645  15.95$  17.12$  13.31$
  Q  0.6645  16.74$  16.87$  12.03$
  Q  -1.3290  16.48$  16.69$  12.8$
  Q  0.6645  4.82$  15.59$  7.28$
  Q  0.6645  6.3$  15.45$  7.67$
  Q  -1.3290  5.52$  15.19$  7.65$
  Q  0.6645  16.38$  8.82$  6.16$
  Q  0.6645  17.09$  9.16$  7.54$
  Q  -1.3290  16.95$  8.75$  6.8$
  Q  0.6645  15.04$  12.93$  2.75$
  Q  0.6645  14.09$  12.5$  3.89$
  Q  -1.3290  14.68$  12.36$  3.26$
  Q  0.6645  8.62$  3.53$  15.83$
  Q  0.6645  8.41$  3.27$  14.3$
  Q  -1.3290  8.32$  3.67$  15.02$
  Q  0.6645  16.64$  7.13$  14.89$
  Q  0.6645  16.99$  8.68$  15.38$
  Q  -1.3290  16.85$  7.82$  15.42$
  Q  0.6645  13.46$  18.7$  18.42$
  Q  0.6645  12.13$  19.24$  19.13$
  Q  -1.3290  12.91$  19.27$  18.8$
  Q  0.6645  18.1$  17.3$  6.07$
  Q  0.6645  18.07$  18.18$  7.3$
  Q  -1.3290  17.79$  17.56$  6.81$
  Q  0.6645  3.15$  14.39$  4.82$
  Q  0.6645  3.05$  13.99$  6.38$
  Q  -1.3290  3.28$  13.91$  5.54$
  Q  0.6645  18.85$  17.95$  10.42$
  Q  0.6645  18.05$  16.94$  9.6$
  Q  -1.3290  18.28$  17.34$  10.31$
  Q  0.6645  0.37$  11.09$  14.07$
  Q  0.6645  1.62$  11.56$  14.75$
  Q  -1.3290  0.79$  11.44$  14.67$
  Q  0.6645  9.08$  18.11$  20.8$
  Q  0.6645  7.94$  18.72$  19.93$
  Q  -1.3290  8.58$  18.16$  20.11$
  Q  0.6645  16.48$  4.26$  13.65$
  Q  0.6645  17.42$  5.08$  12.81$
  Q  -1.3290  17.04$  4.36$  13.04$
  Q  0.6645  10.18$  11.99$  19$
  Q  0.6645  10.85$  12.95$  20.01$
  Q  -1.3290  10.33$  12.33$  19.76$
  Q  0.6645  15.79$  16.68$  4.12$
  Q  0.6645  16.39$  15.39$  4.49$
  Q  -1.3290  16.28$  16.05$  4.01$
  Q  0.6645  4.02$  5.63$  9.83$
  Q  0.6645  3.72$  4.41$  10.59$
  Q  -1.3290  3.7$  4.88$  9.91$
  Q  0.6645  11.03$  15.04$  20.87$
  Q  0.6645  12.32$  14.98$  20$
  Q  -1.3290  11.78$  14.76$  20.62$
  Q  0.6645  7.3$  13.45$  16.72$
  Q  0.6645  6.87$  12.25$  15.85$
  Q  -1.3290  7.37$  12.86$  16.13$
  Q  0.6645  0.14$  13.44$  13.01$
  Q  0.6645  1.33$  13.13$  11.92$
  Q  -1.3290  0.55$  13.34$  12.23$
  Q  0.6645  3.99$  6.86$  7.69$
  Q  0.6645  4.29$  7.39$  6.37$
  Q  -1.3290  4.31$  6.81$  6.96$
  Q  0.6645  15.56$  16.61$  21.82$
  Q  0.6645  15.06$  15.59$  20.78$
  Q  -1.3290  14.99$  16.15$  21.38$
  Q  0.6645  3.71$  11.86$  14.46$
  Q  0.6645  3.99$  13.24$  14.89$
  Q  -1.3290  3.52$  12.56$  14.87$
  Q  0.6645  16.13$  3.51$  11.25$
  Q  0.6645  15.26$  2.61$  10.32$
  Q  -1.3290  15.82$  3.19$  10.49$
  Q  0.6645  4.81$  7.63$  11.17$
  Q  0.6645  5.85$  6.77$  10.31$
  Q  -1.3290  5.08$  7.1$  10.53$
  Q  0.6645  10.67$  2.01$  8.28$
  Q  0.6645  11.42$  2.16$  9.72$
  Q  -1.3290  10.83$  1.91$  9.16$
  Q  0.6645  4.31$  17.33$  10.94$
  Q  0.6645  5.25$  18.38$  10.55$
  Q  -1.3290  4.5$  18.12$  10.8$
  Q  0.6645  9.24$  5.29$  20.41$
  Q  0.6645  9.07$  3.75$  20.52$
  Q  -1.3290  9.09$  4.55$  20.78$
  Q  0.6645  17.52$  13.44$  18.14$
  Q  0.6645  17.44$  14.95$  17.69$
  Q  -1.3290  17.73$  14.27$  18.16$
  Q  0.6645  8.25$  5.58$  6.96$
  Q  0.6645  8.29$  6.14$  5.48$
  Q  -1.3290  8.32$  6.18$  6.34$
  Q  0.6645  8.42$  18.83$  15.34$
  Q  0.6645  8.82$  18.62$  13.86$
  Q  -1.3290  8.48$  18.39$  14.61$
  Q  0.6645  2.24$  12.96$  8.27$
  Q  0.6645  3.21$  13.9$  8.94$
  Q  -1.3290  2.62$  13.72$  8.38$
  Q  0.6645  12.58$  13.41$  -0.2$
  Q  0.6645  12.39$  12.51$  1.15$
  Q  -1.3290  12.76$  12.8$  0.43$
  Q  0.6645  9.71$  18.42$  18.53$
  Q  0.6645  9.72$  19.1$  17.2$
  Q  -1.3290  10.03$  18.62$  17.79$
  Q  0.6645  4.75$  15.29$  15.28$
  Q  0.6645  5.69$  14.61$  14.15$
  Q  -1.3290  4.93$  14.88$  14.51$
  Q  0.6645  13.62$  5.47$  19.49$
  Q  0.6645  14.92$  4.9$  19.38$
  Q  -1.3290  14.31$  5.4$  19.12$
  Q  0.6645  6.31$  6.8$  17.76$
  Q  0.6645  5.78$  6.87$  16.43$
  Q  -1.3290  5.72$  6.86$  17.24$
  Q  0.6645  14.52$  10.85$  20.35$
  Q  0.6645  13.39$  11.61$  21.01$
  Q  -1.3290  13.73$  11.14$  20.44$
  Q  0.6645  16.86$  11.11$  22.61$
  Q  0.6645  17.33$  11.21$  21.16$
  Q  -1.3290  16.77$  11.24$  21.77$
  Q  0.6645  19.56$  12.21$  7.3$
  Q  0.6645  20.64$  13.18$  7.77$
  Q  -1.3290  20.36$  12.45$  7.49$
  Q  0.6645  5.57$  16.47$  19.2$
  Q  0.6645  5.17$  16.07$  17.88$
  Q  -1.3290  5.57$  16.53$  18.4$
  Q  0.6645  5.87$  3.96$  11.68$
  Q  0.6645  4.9$  3.32$  12.76$
  Q  -1.3290  5.24$  3.46$  11.98$
  Q  0.6645  14.12$  2.15$  14.21$
  Q  0.6645  13.42$  3.5$  14.33$
  Q  -1.3290  13.46$  2.65$  14.38$
  Q  0.6645  12.96$  5.86$  13.74$
  Q  0.6645  11.71$  5.5$  14.59$
  Q  -1.3290  12.52$  5.56$  14.42$
  Q  0.6645  6.15$  13.14$  20.46$
  Q  0.6645  5.16$  13.35$  21.61$
  Q  -1.3290  5.46$  13.44$  20.82$
  Q  0.6645  14.69$  18.51$  5.37$
  Q  0.6645  13.57$  18.52$  4.43$
  Q  -1.3290  14.37$  18.52$  4.61$
  Q  0.6645  6.8$  11.72$  1.97$
  Q  0.6645  6.68$  11.51$  0.5$
  Q  -1.3290  6.43$  11.45$  1.27$
  Q  0.6645  14.89$  6.17$  8.3$
  Q  0.6645  14.59$  5.33$  9.64$
  Q  -1.3290  14.69$  6.01$  9.12$
  Q  0.6645  9.25$  15.32$  15.7$
  Q  0.6645  8.65$  16.46$  14.94$
  Q  -1.3290  8.89$  15.67$  15.03$
*
