! NoMOPrint PrintBasis #MINIPRINT SMALLPRINT LARGEPRINT
! ALLPOP XYZFILE
#! BP86 3-21G   TightSCF
! ENGRAD
! B3LYP NormalPNO PModel #DecontractAux
#! VerySlowConv 
 %maxcore 5000
 %scf  maxiter   500  end 

%pal
    nprocs 32
end

%basis
    NewGTO O    # New basis for oxygen
        "aug-cc-pVTZ"
    end
    NewGTO C    # New basis for carbon
        "aug-cc-pVTZ"
    end
    NewGTO H    # New basis for hydrogen
        "cc-pVTZ"
    end
end

* xyz 0   1
  C  11.65  12.27  11.74  #1
  H  12.49  12.66  12.35  #2
  H  10.78  12.75  12.04  #3
  C  11.53  10.79  11.84  #4
  H  12.48  10.3  11.57  #5
  H  11.53  10.65  12.93  #6
  C  10.27  10.21  11.21  #7
  H  9.71  10.94  10.64  #8
  H  9.59  9.88  12.01  #9
  C  10.42  8.99  10.31  #10
  H  9.42  8.44  10.22  #11
  H  11.24  8.39  10.76  #12
  O  10.79  9.35  8.98  #13
  H  11.71  9.69  8.98  #14
  O  11.82  12.67  10.31  #15
  H  12.25  13.51  10.3  #16
  O  12.47  15.32  10.93  #17
  H  13.39  15.64  10.89  #18
  H  12.39  15  11.87  #19
  O  13.64  9.33  14.29  #20
  H  14.14  9.28  13.43  #21
  H  12.78  8.84  14.08  #22
  O  11.68  6.65  8.19  #23
  H  11.46  7.55  8.39  #24
  H  10.81  6.25  8.17  #25
  O  14.04  12.3  15.19  #26
  H  13.6  12.11  15.96  #27
  H  13.95  11.56  14.62  #28
  O  14.52  8.79  11.66  #29
  H  15.27  8.2  11.68  #30
  H  14.49  9.04  10.76  #31
  O  11.1  7.53  13.84  #32
  H  10.22  7.1  13.9  #33
  H  11.65  6.83  13.42  #34
  O  12.93  4.43  9.11  #35
  H  12.32  5.13  8.79  #36
  H  12.67  3.62  8.63  #37
  O  15.04  7.85  16.29  #38
  H  14.45  8.33  15.71  #39
  H  15.88  7.64  15.76  #40
  O  9.56  9.71  6.37  #41
  H  9.08  8.88  6.16  #42
  H  10.16  9.48  7.14  #43
  O  15.81  14.5  15.42  #44
  H  16.06  14.79  14.51  #45
  H  15.27  13.69  15.33  #46
  O  15.04  13.32  9.24  #47
  H  15.59  12.57  9.56  #48
  H  14.46  12.79  8.67  #49
  O  12.94  6.47  11.83  #50
  H  13.41  7.31  11.83  #51
  H  13.73  5.89  12.05  #52
  O  7.55  10.05  8.84  #53
  H  7.5  9.3  9.43  #54
  H  8.46  10.08  8.58  #55
  O  12.83  11.53  8.21  #56
  H  12.28  11.76  7.5  #57
  H  12.29  11.95  8.93  #58
  O  17.22  7.78  11.69  #59
  H  17.4  7.49  12.55  #60
  H  17.98  8.38  11.49  #61
  O  13.73  6.23  6.43  #62
  H  13.98  5.29  6.43  #63
  H  13.19  6.31  7.19  #64
  O  7.01  12.49  10.01  #65
  H  6.28  13  9.54  #66
  H  7.12  11.67  9.55  #67
  O  8.85  5.74  7.9  #68
  H  8.35  6.12  8.65  #69
  H  8.71  6.36  7.1  #70
  O  15.91  11.18  17.82  #71
  H  15.49  11.97  18.19  #72
  H  15.72  11.13  16.84  #73
  O  16.41  11.13  9.27  #74
  H  15.87  10.36  9.1  #75
  H  17  10.87  10.05  #76
  O  14.01  9  8.72  #77
  H  14.56  8.53  8.04  #78
  H  13.77  9.77  8.13  #79
  O  12.65  11.87  17.64  #80
  H  11.77  12.21  17.45  #81
  H  13.18  12.52  18.07  #82
  O  13.11  18.19  12.43  #83
  H  12.55  17.4  12.42  #84
  H  12.82  18.54  11.62  #85
  O  12.05  15.41  13.81  #86
  H  12.08  14.57  14.29  #87
  H  12.31  15.94  14.6  #88
  O  15.25  15.45  10.8  #89
  H  15.79  16.01  10.24  #90
  H  15.16  14.62  10.26  #91
  O  8.22  5.79  10.65  #92
  H  8.93  5.11  10.73  #93
  H  7.44  5.29  10.76  #94
  O  10.96  12.95  15.04  #95
  H  10.77  12.03  15.36  #96
  H  10.15  13.28  14.64  #97
  O  10.6  15.96  9.15  #98
  H  11.38  15.94  9.69  #99
  H  10.82  16.74  8.56  #100
  O  6.89  8.33  11.01  #101
  H  7.27  7.5  11.31  #102
  H  6.81  8.86  11.86  #103
  Q  0.6645  12.33$  18.43$  7.85$
  Q  0.6645  12.08$  17.74$  6.54$
  Q  -1.3290  11.85$  18.05$  7.28$
  Q  0.6645  9.57$  19.57$  11.33$
  Q  0.6645  9.64$  20.15$  12.64$
  Q  -1.3290  9.5$  19.53$  12.13$
  Q  0.6645  10.95$  12.16$  5.58$
  Q  0.6645  12.08$  12.02$  4.51$
  Q  -1.3290  11.76$  12.07$  5.29$
  Q  0.6645  7.93$  6.91$  5.02$
  Q  0.6645  9.51$  6.75$  5.01$
  Q  -1.3290  8.73$  6.99$  5.31$
  Q  0.6645  8.55$  16.2$  9$
  Q  0.6645  7.69$  16.93$  10.04$
  Q  -1.3290  7.82$  16.5$  9.33$
  Q  0.6645  14.37$  16.53$  3.53$
  Q  0.6645  13.52$  16.77$  2.21$
  Q  -1.3290  14.23$  16.66$  2.7$
  Q  0.6645  3.67$  8.3$  6.61$
  Q  0.6645  4.74$  8.91$  5.74$
  Q  -1.3290  3.95$  8.83$  6.02$
  Q  0.6645  18.04$  17.55$  10.3$
  Q  0.6645  19.46$  18.3$  10.03$
  Q  -1.3290  18.87$  17.63$  10.1$
  Q  0.6645  4.17$  8.81$  16.14$
  Q  0.6645  3.95$  8.27$  14.76$
  Q  -1.3290  4.26$  8.78$  15.32$
  Q  0.6645  11.58$  20.59$  8.78$
  Q  0.6645  12.81$  21.38$  8.02$
  Q  -1.3290  12.03$  21.25$  8.4$
  Q  0.6645  8.77$  7.71$  20.39$
  Q  0.6645  8.61$  8.56$  21.66$
  Q  -1.3290  8.5$  7.89$  21.16$
  Q  0.6645  6.39$  10.75$  5.56$
  Q  0.6645  6.53$  10.07$  6.97$
  Q  -1.3290  6.49$  10.12$  6.11$
  Q  0.6645  -0.42$  9.69$  10.15$
  Q  0.6645  0.55$  8.73$  11.01$
  Q  -1.3290  0.33$  9.32$  10.45$
  Q  0.6645  9.06$  2.52$  9.03$
  Q  0.6645  9.47$  1.99$  10.3$
  Q  -1.3290  8.91$  2.25$  9.78$
  Q  0.6645  9.17$  0.91$  13.52$
  Q  0.6645  8.25$  -0.05$  14.34$
  Q  -1.3290  8.62$  0.27$  13.65$
  Q  0.6645  5.45$  13.19$  12.92$
  Q  0.6645  6.54$  12.92$  11.83$
  Q  -1.3290  6.23$  13.08$  12.62$
  Q  0.6645  1.97$  6.57$  12.26$
  Q  0.6645  0.67$  6.42$  11.58$
  Q  -1.3290  1.23$  6.84$  12.01$
  Q  0.6645  12.89$  7.45$  16.75$
  Q  0.6645  11.4$  7.49$  16.09$
  Q  -1.3290  12.07$  7.21$  16.6$
  Q  0.6645  10.03$  17.31$  3.88$
  Q  0.6645  9.16$  18.51$  3.68$
  Q  -1.3290  9.91$  18.12$  3.78$
  Q  0.6645  7.89$  13.16$  4.26$
  Q  0.6645  7.62$  13.16$  2.73$
  Q  -1.3290  7.57$  13.43$  3.53$
  Q  0.6645  20.34$  10.75$  15.85$
  Q  0.6645  21.35$  11.03$  14.81$
  Q  -1.3290  21.05$  10.66$  15.48$
  Q  0.6645  4.52$  8.02$  18.61$
  Q  0.6645  4.01$  9.43$  18.43$
  Q  -1.3290  4.19$  8.63$  18.17$
  Q  0.6645  13.36$  10.73$  3.33$
  Q  0.6645  11.86$  10.4$  3.06$
  Q  -1.3290  12.6$  10.79$  2.95$
  Q  0.6645  18.27$  12.13$  4.79$
  Q  0.6645  17.08$  12.89$  5.64$
  Q  -1.3290  17.88$  12.76$  5.27$
  Q  0.6645  2.78$  12.76$  11.02$
  Q  0.6645  3.17$  13.86$  10.09$
  Q  -1.3290  2.94$  13.56$  10.81$
  Q  0.6645  19.09$  2.98$  9.39$
  Q  0.6645  18.22$  3.92$  10.09$
  Q  -1.3290  18.71$  3.25$  10.04$
  Q  0.6645  14.97$  18.19$  12.94$
  Q  0.6645  16.31$  17.3$  13.18$
  Q  -1.3290  15.8$  18.01$  13.13$
  Q  0.6645  3.75$  11.56$  19.14$
  Q  0.6645  4.81$  11.84$  18.04$
  Q  -1.3290  4.49$  11.49$  18.75$
  Q  0.6645  6.44$  10.81$  12.91$
  Q  0.6645  5.68$  9.8$  13.7$
  Q  -1.3290  6.33$  10.08$  13.28$
  Q  0.6645  7.68$  9.63$  19.01$
  Q  0.6645  6.27$  9.81$  18.75$
  Q  -1.3290  6.93$  9.35$  18.88$
  Q  0.6645  11.17$  18.25$  20.64$
  Q  0.6645  10.52$  18.14$  19.23$
  Q  -1.3290  10.95$  17.85$  19.91$
  Q  0.6645  21.22$  17.03$  7.92$
  Q  0.6645  19.79$  17.07$  8.3$
  Q  -1.3290  20.39$  17$  7.77$
  Q  0.6645  9.55$  15.93$  16.94$
  Q  0.6645  9.24$  16.51$  15.5$
  Q  -1.3290  9.2$  16.45$  16.33$
  Q  0.6645  12.51$  19.44$  13.75$
  Q  0.6645  12.77$  20.34$  14.97$
  Q  -1.3290  12.41$  20.13$  14.24$
  Q  0.6645  21.78$  8.06$  6.74$
  Q  0.6645  20.15$  8.19$  6.46$
  Q  -1.3290  21.03$  8.05$  6.29$
  Q  0.6645  0.98$  8.32$  8.74$
  Q  0.6645  1.42$  7.03$  8.02$
  Q  -1.3290  1.2$  7.85$  8.07$
  Q  0.6645  5.27$  6.35$  6.55$
  Q  0.6645  4.74$  6.47$  8$
  Q  -1.3290  4.73$  6.21$  7.19$
  Q  0.6645  6.23$  4.23$  13.11$
  Q  0.6645  5.81$  5.36$  14.11$
  Q  -1.3290  6.09$  5.05$  13.38$
  Q  0.6645  14.41$  21.75$  11.48$
  Q  0.6645  15.67$  21$  10.99$
  Q  -1.3290  14.89$  21.34$  10.91$
  Q  0.6645  6.49$  16.34$  14.55$
  Q  0.6645  5.59$  15.92$  13.39$
  Q  -1.3290  6.12$  16.42$  13.81$
  Q  0.6645  15.61$  20.68$  7.31$
  Q  0.6645  16.76$  19.52$  7.08$
  Q  -1.3290  16.26$  20.13$  7.51$
  Q  0.6645  13.21$  15.57$  19.36$
  Q  0.6645  12.15$  16.68$  19.01$
  Q  -1.3290  12.65$  15.99$  18.86$
  Q  0.6645  7.76$  14.08$  15.87$
  Q  0.6645  8.72$  13.58$  17.14$
  Q  -1.3290  7.99$  13.64$  16.63$
  Q  0.6645  4.71$  3.4$  9.19$
  Q  0.6645  3.95$  4.35$  8.07$
  Q  -1.3290  4.09$  3.65$  8.61$
  Q  0.6645  12.27$  13.78$  5.72$
  Q  0.6645  11.66$  14.94$  5.11$
  Q  -1.3290  12.25$  14.58$  5.55$
  Q  0.6645  8.02$  22.65$  8.74$
  Q  0.6645  7.18$  21.47$  8.07$
  Q  -1.3290  7.86$  21.87$  8.37$
  Q  0.6645  5.52$  11.43$  15.98$
  Q  0.6645  4.21$  11.77$  15.05$
  Q  -1.3290  4.81$  11.87$  15.67$
  Q  0.6645  5.09$  18.97$  15.46$
  Q  0.6645  6.02$  20.05$  15.74$
  Q  -1.3290  5.82$  19.28$  15.55$
  Q  0.6645  2.68$  12.01$  5.54$
  Q  0.6645  2.94$  10.61$  5.34$
  Q  -1.3290  2.61$  11.31$  5.14$
  Q  0.6645  8.26$  15.54$  6.89$
  Q  0.6645  7.06$  15.81$  5.78$
  Q  -1.3290  7.89$  15.79$  6.08$
  Q  0.6645  3.01$  10.32$  14.54$
  Q  0.6645  2.96$  10.38$  12.96$
  Q  -1.3290  2.88$  10.66$  13.75$
  Q  0.6645  14.38$  17.19$  5.87$
  Q  0.6645  13.34$  16.16$  5.42$
  Q  -1.3290  13.77$  16.87$  5.4$
  Q  0.6645  16.56$  14.12$  8.04$
  Q  0.6645  17.32$  14.8$  7.08$
  Q  -1.3290  17.19$  14.53$  7.82$
  Q  0.6645  9.28$  10.69$  16.25$
  Q  0.6645  10.27$  9.82$  17.17$
  Q  -1.3290  10.01$  10.26$  16.47$
  Q  0.6645  15.96$  17.89$  15.65$
  Q  0.6645  16.25$  18.21$  17.16$
  Q  -1.3290  16.34$  18.28$  16.33$
  Q  0.6645  3.92$  14.79$  8.34$
  Q  0.6645  2.82$  14.06$  7.47$
  Q  -1.3290  3.13$  14.53$  8.12$
  Q  0.6645  18.14$  17.43$  16.11$
  Q  0.6645  19.36$  17.14$  17.11$
  Q  -1.3290  18.85$  17.03$  16.43$
  Q  0.6645  9.62$  19.51$  17.37$
  Q  0.6645  9.3$  18.09$  17.46$
  Q  -1.3290  9.44$  18.83$  17.8$
  Q  0.6645  7.84$  12.86$  21.31$
  Q  0.6645  8.49$  14$  20.51$
  Q  -1.3290  8.11$  13.25$  20.62$
  Q  0.6645  10.15$  14.68$  0.46$
  Q  0.6645  11.11$  13.7$  1.02$
  Q  -1.3290  10.6$  14.33$  1.09$
  Q  0.6645  6.17$  14.47$  18.03$
  Q  0.6645  6.73$  13.75$  19.24$
  Q  -1.3290  6.16$  14.24$  18.84$
  Q  0.6645  15.11$  13.34$  4.87$
  Q  0.6645  14.45$  13.79$  6.2$
  Q  -1.3290  15.03$  13.35$  5.73$
  Q  0.6645  17.83$  11.69$  8.11$
  Q  0.6645  18.66$  12.22$  6.89$
  Q  -1.3290  18.47$  11.69$  7.53$
  Q  0.6645  13.95$  6.84$  19.18$
  Q  0.6645  14.74$  7.72$  18.01$
  Q  -1.3290  14.27$  7.56$  18.76$
  Q  0.6645  4.24$  6.54$  10.54$
  Q  0.6645  5.48$  7.5$  10.2$
  Q  -1.3290  4.76$  7.03$  10.07$
  Q  0.6645  7.23$  18.43$  19.36$
  Q  0.6645  6.57$  17.38$  18.43$
  Q  -1.3290  6.65$  17.84$  19.14$
  Q  0.6645  14.59$  11.06$  5.16$
  Q  0.6645  14.97$  9.56$  5.14$
  Q  -1.3290  14.65$  10.27$  4.81$
  Q  0.6645  10.03$  15.14$  3.32$
  Q  0.6645  9.39$  15.4$  4.66$
  Q  -1.3290  10.03$  15.46$  4.1$
  Q  0.6645  15.76$  3.03$  9.81$
  Q  0.6645  14.62$  4.08$  9.54$
  Q  -1.3290  15.39$  3.83$  9.83$
  Q  0.6645  3.38$  15.13$  13.81$
  Q  0.6645  3.62$  14.45$  12.34$
  Q  -1.3290  3.81$  14.77$  13.14$
  Q  0.6645  13.85$  20.16$  9.77$
  Q  0.6645  14.07$  18.8$  9.58$
  Q  -1.3290  13.65$  19.44$  9.45$
  Q  0.6645  14.56$  2.05$  15.65$
  Q  0.6645  14.63$  0.63$  16.38$
  Q  -1.3290  14.53$  1.48$  16.31$
  Q  0.6645  15.45$  0.63$  9.74$
  Q  0.6645  16.92$  1.07$  9.35$
  Q  -1.3290  16.07$  1.17$  9.47$
  Q  0.6645  4$  8.83$  9.11$
  Q  0.6645  2.83$  9.33$  8.23$
  Q  -1.3290  3.51$  9.4$  8.78$
  Q  0.6645  8.37$  13.56$  8.71$
  Q  0.6645  9.56$  14.34$  8.3$
  Q  -1.3290  8.86$  13.95$  8.14$
  Q  0.6645  18.44$  5.58$  6.16$
  Q  0.6645  17.7$  5.78$  7.43$
  Q  -1.3290  17.76$  5.5$  6.63$
  Q  0.6645  19.8$  8.38$  9.89$
  Q  0.6645  20.41$  7.03$  9.31$
  Q  -1.3290  20.08$  7.83$  9.28$
  Q  0.6645  8.91$  15.13$  13.75$
  Q  0.6645  7.66$  14.13$  13.63$
  Q  -1.3290  8.34$  14.52$  14.03$
  Q  0.6645  14.6$  13.4$  19.92$
  Q  0.6645  14.95$  14.18$  18.68$
  Q  -1.3290  14.5$  13.61$  19.1$
  Q  0.6645  12.97$  0.14$  13.39$
  Q  0.6645  13.37$  1.65$  13.23$
  Q  -1.3290  13.29$  0.83$  12.98$
  Q  0.6645  20.55$  13.97$  15.91$
  Q  0.6645  19.44$  14.91$  16.22$
  Q  -1.3290  19.81$  14.14$  16.19$
  Q  0.6645  2.32$  6.79$  15.44$
  Q  0.6645  3.17$  5.82$  14.63$
  Q  -1.3290  2.9$  6.59$  14.84$
  Q  0.6645  6.23$  7.95$  20$
  Q  0.6645  5.09$  7.28$  20.99$
  Q  -1.3290  5.59$  7.38$  20.28$
  Q  0.6645  19.58$  16.25$  11.43$
  Q  0.6645  20.17$  16$  12.85$
  Q  -1.3290  19.85$  15.79$  12.09$
  Q  0.6645  1.92$  11.6$  16.83$
  Q  0.6645  1$  10.53$  16.37$
  Q  -1.3290  1.74$  10.8$  16.61$
  Q  0.6645  12.84$  8.29$  21.94$
  Q  0.6645  11.59$  7.57$  21.8$
  Q  -1.3290  12.08$  8.26$  21.69$
  Q  0.6645  2.64$  4.44$  12.26$
  Q  0.6645  4.17$  5$  12.26$
  Q  -1.3290  3.36$  4.89$  11.97$
  Q  0.6645  7.51$  11.99$  15.92$
  Q  0.6645  7.29$  10.78$  14.97$
  Q  -1.3290  7.51$  11.16$  15.67$
  Q  0.6645  6.87$  11.57$  0.69$
  Q  0.6645  8.27$  10.98$  1.17$
  Q  -1.3290  7.65$  11.54$  1.14$
  Q  0.6645  18.5$  9.49$  6.96$
  Q  0.6645  18.85$  8.17$  7.85$
  Q  -1.3290  18.55$  8.64$  7.14$
  Q  0.6645  5.39$  9.58$  3.18$
  Q  0.6645  4.35$  9.02$  2.22$
  Q  -1.3290  5.03$  8.97$  2.73$
  Q  0.6645  9.67$  17.67$  12.97$
  Q  0.6645  10.59$  16.55$  13.44$
  Q  -1.3290  9.9$  17$  13.45$
  Q  0.6645  6.64$  19.08$  7.56$
  Q  0.6645  5.81$  18.85$  8.84$
  Q  -1.3290  5.96$  19.13$  8.08$
  Q  0.6645  11.55$  5.75$  3.87$
  Q  0.6645  11.91$  6.06$  5.21$
  Q  -1.3290  11.37$  6.08$  4.62$
  Q  0.6645  3.3$  10.65$  10.38$
  Q  0.6645  1.85$  10.5$  10.75$
  Q  -1.3290  2.65$  10.76$  10.91$
  Q  0.6645  16.35$  15.22$  17.16$
  Q  0.6645  17.22$  14.8$  18.38$
  Q  -1.3290  16.58$  15.21$  17.96$
  Q  0.6645  5$  6.83$  15.75$
  Q  0.6645  6.32$  6.15$  16.26$
  Q  -1.3290  5.56$  6.18$  15.9$
  Q  0.6645  16.24$  15.41$  12.19$
  Q  0.6645  17.58$  15.13$  12.58$
  Q  -1.3290  16.87$  15.47$  12.72$
  Q  0.6645  16.29$  18.98$  9.28$
  Q  0.6645  16.33$  18.69$  10.81$
  Q  -1.3290  16.2$  18.49$  9.99$
  Q  0.6645  3.15$  3.17$  14.48$
  Q  0.6645  3.47$  4.03$  15.67$
  Q  -1.3290  3.21$  3.89$  14.87$
  Q  0.6645  6.33$  15.25$  8.71$
  Q  0.6645  5.66$  14.77$  7.35$
  Q  -1.3290  5.86$  14.74$  8.17$
  Q  0.6645  8.74$  3.84$  7.25$
  Q  0.6645  9.9$  2.84$  6.96$
  Q  -1.3290  9.1$  3.1$  7.02$
  Q  0.6645  7.7$  1.44$  6.26$
  Q  0.6645  6.69$  0.4$  5.81$
  Q  -1.3290  7.35$  0.94$  5.73$
  Q  0.6645  19.26$  11.37$  2.46$
  Q  0.6645  18.3$  10.63$  3.37$
  Q  -1.3290  18.9$  11.18$  3.2$
  Q  0.6645  16.45$  8.11$  6.57$
  Q  0.6645  14.97$  7.48$  6.28$
  Q  -1.3290  15.59$  8.14$  6.36$
  Q  0.6645  6.3$  5.68$  19.25$
  Q  0.6645  7.34$  5.53$  18.1$
  Q  -1.3290  6.82$  5.26$  18.72$
  Q  0.6645  16.16$  3.44$  7.24$
  Q  0.6645  15.75$  2.1$  7.84$
  Q  -1.3290  15.79$  2.66$  7.22$
  Q  0.6645  14.87$  19.96$  16.39$
  Q  0.6645  13.86$  20.27$  17.38$
  Q  -1.3290  14.23$  20.39$  16.66$
  Q  0.6645  5.84$  12.38$  3.52$
  Q  0.6645  4.55$  11.89$  4.03$
  Q  -1.3290  5.29$  11.78$  3.71$
  Q  0.6645  8.87$  12.87$  6.3$
  Q  0.6645  8.96$  11.35$  5.78$
  Q  -1.3290  8.91$  12.22$  5.72$
  Q  0.6645  11.32$  1.29$  7.45$
  Q  0.6645  12.07$  1.93$  6.28$
  Q  -1.3290  11.6$  1.92$  7$
  Q  0.6645  18.26$  7.88$  14.95$
  Q  0.6645  17.57$  6.45$  14.51$
  Q  -1.3290  17.69$  7.34$  14.59$
  Q  0.6645  11.26$  5.3$  11.45$
  Q  0.6645  11.31$  4.12$  10.52$
  Q  -1.3290  10.98$  4.6$  11.09$
  Q  0.6645  19.24$  10.1$  11.74$
  Q  0.6645  20.46$  8.99$  12.02$
  Q  -1.3290  19.75$  9.36$  11.64$
  Q  0.6645  10.01$  10.41$  19.6$
  Q  0.6645  9.05$  11.54$  19.88$
  Q  -1.3290  9.24$  10.79$  19.59$
  Q  0.6645  6.83$  2.92$  10.01$
  Q  0.6645  6.16$  2.75$  11.32$
  Q  -1.3290  6.34$  3.16$  10.63$
  Q  0.6645  20.1$  7.29$  16.21$
  Q  0.6645  20.12$  8.63$  16.9$
  Q  -1.3290  19.78$  8.03$  16.39$
  Q  0.6645  9.54$  19.2$  8.83$
  Q  0.6645  9.21$  20.6$  9.06$
  Q  -1.3290  9.57$  19.88$  9.26$
  Q  0.6645  12.17$  11.01$  -0.28$
  Q  0.6645  12.57$  11.45$  1.03$
  Q  -1.3290  12.46$  11.54$  0.23$
  Q  0.6645  9.49$  3.62$  16.2$
  Q  0.6645  9.25$  4.59$  14.98$
  Q  -1.3290  9.7$  4.06$  15.5$
  Q  0.6645  17.26$  4.12$  14.89$
  Q  0.6645  18.5$  4.39$  13.93$
  Q  -1.3290  17.68$  4.43$  14.2$
  Q  0.6645  15.48$  13.8$  2.64$
  Q  0.6645  15.86$  12.27$  2.79$
  Q  -1.3290  15.48$  13.01$  3.01$
  Q  0.6645  14.64$  4.31$  19.1$
  Q  0.6645  13.38$  4.32$  18.14$
  Q  -1.3290  13.82$  4.48$  18.87$
  Q  0.6645  10.29$  20.13$  15.31$
  Q  0.6645  10.97$  21.3$  16.19$
  Q  -1.3290  10.36$  20.74$  15.93$
  Q  0.6645  16.79$  19.75$  12.71$
  Q  0.6645  18.32$  20$  12.24$
  Q  -1.3290  17.44$  20.16$  12.28$
  Q  0.6645  15.49$  18.51$  19.41$
  Q  0.6645  16.27$  17.21$  19.05$
  Q  -1.3290  16.14$  18.04$  19.1$
  Q  0.6645  16.21$  4.83$  13.03$
  Q  0.6645  15.46$  4.63$  11.72$
  Q  -1.3290  15.55$  4.9$  12.52$
  Q  0.6645  17.04$  10.84$  14.78$
  Q  0.6645  16.96$  9.69$  13.76$
  Q  -1.3290  16.88$  10.48$  14.03$
  Q  0.6645  6.08$  2.13$  16.57$
  Q  0.6645  6.95$  2.35$  15.38$
  Q  -1.3290  6.81$  2.17$  16.17$
  Q  0.6645  8.27$  6.91$  15.37$
  Q  0.6645  7.7$  6.46$  13.97$
  Q  -1.3290  8.29$  6.56$  14.58$
  Q  0.6645  10.02$  5.79$  18.98$
  Q  0.6645  10.55$  6.7$  17.9$
  Q  -1.3290  10.1$  6.55$  18.6$
  Q  0.6645  5.02$  3.54$  4.93$
  Q  0.6645  6.36$  3.14$  4.31$
  Q  -1.3290  5.64$  3.56$  4.38$
  Q  0.6645  10.43$  9.38$  0.7$
  Q  0.6645  9.97$  9.64$  2$
  Q  -1.3290  9.83$  9.56$  1.21$
  Q  0.6645  4.84$  14.92$  5.03$
  Q  0.6645  4.55$  16.23$  5.6$
  Q  -1.3290  4.84$  15.47$  5.63$
  Q  0.6645  4.06$  18.65$  11.47$
  Q  0.6645  5.65$  18.65$  11.29$
  Q  -1.3290  4.85$  18.97$  11.23$
  Q  0.6645  15.92$  9.73$  3.55$
  Q  0.6645  17.09$  8.82$  3$
  Q  -1.3290  16.6$  9.54$  3.09$
  Q  0.6645  5.84$  1.8$  13.13$
  Q  0.6645  7.26$  1.76$  13.27$
  Q  -1.3290  6.55$  2.15$  13.29$
  Q  0.6645  5.72$  7.14$  4.05$
  Q  0.6645  6.11$  5.74$  4.3$
  Q  -1.3290  6$  6.53$  4.52$
  Q  0.6645  16.94$  17.45$  6.51$
  Q  0.6645  16.6$  16.5$  5.4$
  Q  -1.3290  16.52$  16.81$  6.18$
  Q  0.6645  4.96$  15.23$  16.72$
  Q  0.6645  4.7$  13.71$  16.32$
  Q  -1.3290  4.53$  14.48$  16.66$
  Q  0.6645  8.57$  17.72$  6.22$
  Q  0.6645  9.26$  19.12$  6.18$
  Q  -1.3290  8.61$  18.56$  6.32$
  Q  0.6645  11.95$  19.27$  4.21$
  Q  0.6645  13.36$  18.64$  4.5$
  Q  -1.3290  12.78$  19.26$  4.39$
  Q  0.6645  6.81$  17.45$  12.42$
  Q  0.6645  7.85$  18.49$  11.83$
  Q  -1.3290  7.27$  17.88$  11.81$
  Q  0.6645  14.55$  3.81$  13.72$
  Q  0.6645  13.36$  3.97$  14.8$
  Q  -1.3290  13.99$  3.57$  14.38$
  Q  0.6645  8.71$  16.08$  21.02$
  Q  0.6645  10.12$  16$  20.35$
  Q  -1.3290  9.38$  15.71$  20.75$
  Q  0.6645  9.22$  21.59$  6.11$
  Q  0.6645  10.46$  20.99$  6.7$
  Q  -1.3290  9.93$  21.17$  6.07$
  Q  0.6645  18.13$  14.22$  9.47$
  Q  0.6645  19.1$  14.24$  10.74$
  Q  -1.3290  18.48$  13.96$  10.23$
  Q  0.6645  14.21$  21.81$  5.81$
  Q  0.6645  13.54$  20.44$  5.92$
  Q  -1.3290  14$  21.1$  6.2$
  Q  0.6645  1.26$  11.4$  13.45$
  Q  0.6645  0.29$  12.32$  12.64$
  Q  -1.3290  0.56$  11.88$  13.31$
  Q  0.6645  11.77$  1.28$  11.25$
  Q  0.6645  11.64$  0.95$  9.75$
  Q  -1.3290  11.46$  1.36$  10.47$
  Q  0.6645  3.16$  1.72$  5.81$
  Q  0.6645  3.75$  2.6$  6.93$
  Q  -1.3290  3.74$  2.19$  6.19$
  Q  0.6645  11.03$  13.88$  16.74$
  Q  0.6645  11.37$  14.69$  18.12$
  Q  -1.3290  10.85$  14.28$  17.52$
  Q  0.6645  8.71$  7.13$  17.82$
  Q  0.6645  7.42$  7.97$  17.57$
  Q  -1.3290  8.03$  7.42$  17.37$
  Q  0.6645  17.48$  6.47$  10.06$
  Q  0.6645  16.6$  5.31$  9.43$
  Q  -1.3290  17.28$  5.86$  9.5$
  Q  0.6645  11.54$  4.17$  16.24$
  Q  0.6645  12.09$  5.44$  16.73$
  Q  -1.3290  12.08$  4.6$  16.66$
  Q  0.6645  16.14$  10.08$  19.16$
  Q  0.6645  16.5$  10.32$  20.78$
  Q  -1.3290  16.41$  9.9$  19.97$
  Q  0.6645  3.66$  4.25$  17.97$
  Q  0.6645  5.01$  4.48$  17.15$
  Q  -1.3290  4.36$  4.05$  17.52$
  Q  0.6645  7.41$  16.3$  16.75$
  Q  0.6645  6.34$  17.52$  16.54$
  Q  -1.3290  6.62$  16.7$  16.73$
  Q  0.6645  10.04$  2.91$  14.22$
  Q  0.6645  10.47$  3.19$  12.77$
  Q  -1.3290  10.16$  2.74$  13.38$
  Q  0.6645  1.4$  5.01$  7.49$
  Q  0.6645  1.98$  4.52$  8.87$
  Q  -1.3290  1.53$  5$  8.35$
  Q  0.6645  17.98$  12.25$  11.15$
  Q  0.6645  17.5$  11.34$  12.48$
  Q  -1.3290  17.87$  11.55$  11.68$
  Q  0.6645  21.63$  12.95$  9.61$
  Q  0.6645  20.26$  12.36$  8.8$
  Q  -1.3290  21.12$  12.55$  8.98$
  Q  0.6645  18.9$  12.37$  16.29$
  Q  0.6645  18.32$  11.27$  17.18$
  Q  -1.3290  18.67$  11.57$  16.48$
  Q  0.6645  11.37$  5.29$  1.58$
  Q  0.6645  11.32$  3.87$  2.3$
  Q  -1.3290  11.61$  4.69$  2.16$
  Q  0.6645  13.59$  16.25$  17.08$
  Q  0.6645  14.44$  15.71$  15.92$
  Q  -1.3290  13.8$  16.08$  16.27$
  Q  0.6645  11.22$  8.4$  3.69$
  Q  0.6645  10.54$  9.48$  4.67$
  Q  -1.3290  10.78$  9.12$  3.9$
  Q  0.6645  12.11$  9.16$  19.51$
  Q  0.6645  12.06$  10.42$  18.68$
  Q  -1.3290  11.75$  9.77$  19.05$
  Q  0.6645  2.78$  7.7$  4.64$
  Q  0.6645  1.17$  7.66$  4.73$
  Q  -1.3290  1.96$  7.51$  4.41$
  Q  0.6645  19.69$  15.77$  6.43$
  Q  0.6645  19.4$  14.43$  5.64$
  Q  -1.3290  19.4$  15.28$  5.77$
  Q  0.6645  19.04$  8.07$  2.52$
  Q  0.6645  18.44$  7.25$  3.71$
  Q  -1.3290  18.46$  7.61$  2.92$
*
