! NoMOPrint PrintBasis #MINIPRINT SMALLPRINT LARGEPRINT
! ALLPOP XYZFILE
#! BP86 3-21G   TightSCF
! ENGRAD
! B3LYP NormalPNO PModel #DecontractAux
#! VerySlowConv 
 %maxcore 5000
 %scf  maxiter   500  end 

%pal
    nprocs 32
end

%basis
    NewGTO O    # New basis for oxygen
        "aug-cc-pVTZ"
    end
    NewGTO C    # New basis for carbon
        "aug-cc-pVTZ"
    end
    NewGTO H    # New basis for hydrogen
        "cc-pVTZ"
    end
end

* xyz 0   1
  C  11.79  10.27  12.37  #1
  H  11.56  10.99  13.2  #2
  H  12.81  10.11  12.18  #3
  C  10.94  10.79  11.12  #4
  H  10.98  9.91  10.43  #5
  H  9.95  10.84  11.42  #6
  C  11.44  12.11  10.51  #7
  H  12.38  11.93  10.14  #8
  H  11.68  12.87  11.19  #9
  C  10.69  12.62  9.25  #10
  H  10.3  11.77  8.67  #11
  H  11.25  13.32  8.64  #12
  O  9.48  13.34  9.73  #13
  H  9.03  13.57  8.92  #14
  O  11.35  9.02  12.95  #15
  H  11.29  8.27  12.32  #16
  O  13.12  11.88  15.79  #17
  H  12.83  12.58  15.18  #18
  H  12.39  11.79  16.43  #19
  O  14.81  11.67  11.17  #20
  H  14.76  11.78  10.24  #21
  H  14.43  12.54  11.51  #22
  O  14.27  14.42  10.68  #23
  H  14.97  14.6  10.05  #24
  H  13.43  14.64  10.27  #25
  O  7.98  11.16  7.25  #26
  H  8.41  10.32  7.49  #27
  H  7.3  11.31  7.91  #28
  O  9.66  7.75  10.63  #29
  H  8.99  7.61  11.32  #30
  H  10.14  6.98  10.78  #31
  O  7.32  10.45  13.02  #32
  H  7.37  10.55  13.99  #33
  H  7.66  9.6  12.8  #34
  O  12.14  16.21  9.58  #35
  H  11.24  16.25  9.33  #36
  H  12.05  16.57  10.53  #37
  O  11.88  6.18  11.6  #38
  H  11.86  5.61  10.85  #39
  H  12.76  6.51  11.69  #40
  O  9.99  16.04  8.05  #41
  H  9.21  15.85  8.58  #42
  H  9.66  15.89  7.12  #43
  O  8.96  8.35  8.06  #44
  H  9.27  8.2  8.98  #45
  H  8.15  7.8  8  #46
  O  15.65  12.95  17.05  #47
  H  16.2  13.33  16.35  #48
  H  14.76  12.82  16.67  #49
  O  12.14  13.45  6.38  #50
  H  11.54  13.56  5.64  #51
  H  12.47  14.37  6.55  #52
  O  8.13  12.96  11.99  #53
  H  7.89  12.03  12.04  #54
  H  8.47  13.15  11.06  #55
  O  7.29  15.8  9.26  #56
  H  6.9  16.59  9.71  #57
  H  6.69  15.68  8.52  #58
  O  4.53  11.11  12.36  #59
  H  3.9  10.93  11.64  #60
  H  5.39  10.88  12.2  #61
  O  10.49  5.4  13.65  #62
  H  11.19  5.65  12.97  #63
  H  10.02  4.58  13.55  #64
  O  16.48  15.96  12.38  #65
  H  17.28  15.93  11.83  #66
  H  15.72  15.65  11.88  #67
  O  9.53  9.23  15.04  #68
  H  9.92  9.32  14.13  #69
  H  8.77  9.82  14.97  #70
  O  14.46  7.33  11.26  #71
  H  14.76  8.06  11.87  #72
  H  14.46  7.67  10.31  #73
  O  17.65  11.56  11.08  #74
  H  16.69  11.51  11.23  #75
  H  17.66  11.77  10.19  #76
  O  16.1  15.58  8.68  #77
  H  16.94  15.88  9.03  #78
  H  16.2  15.03  7.85  #79
  O  15.12  9.45  12.72  #80
  H  14.97  10.31  12.24  #81
  H  14.68  9.42  13.56  #82
  O  6.56  11.02  9.6  #83
  H  5.92  10.23  9.58  #84
  H  7.28  10.64  10.06  #85
  O  12.2  10.94  7.04  #86
  H  12.07  11.89  6.84  #87
  H  12.96  11.07  7.68  #88
  O  12.19  14.62  15.2  #89
  H  11.85  14.83  14.28  #90
  H  12.88  15.28  15.28  #91
  O  14.93  11.73  8.47  #92
  H  15.04  12.29  7.7  #93
  H  15.25  10.92  8.14  #94
  O  5.39  9.96  6.48  #95
  H  5.18  10.09  5.48  #96
  H  6.29  10.27  6.66  #97
  O  7.79  7.73  12.75  #98
  H  7.87  7.45  13.67  #99
  H  6.83  7.9  12.77  #100
  O  6.51  12.93  5.72  #101
  H  6.88  13.08  4.84  #102
  H  7.33  12.68  6.17  #103
  O  13.47  8.79  15.23  #104
  H  12.67  8.43  14.84  #105
  H  13.19  9.63  15.53  #106
  O  8.68  11.04  3.93  #107
  H  8.12  11.03  4.73  #108
  H  9.12  10.18  3.93  #109
  O  7.45  10.98  15.6  #110
  H  6.63  10.87  16.14  #111
  H  7.92  11.68  16.12  #112
  O  12.97  15.83  6.92  #113
  H  12.65  15.85  7.85  #114
  H  13.83  16.21  6.86  #115
  O  10.33  11.12  16.97  #116
  H  10.32  10.31  16.47  #117
  H  10.16  11.88  16.37  #118
  Q  0.6645  17.03$  3.11$  14.08$
  Q  0.6645  17.13$  4.27$  15.13$
  Q  -1.3290  17.37$  3.58$  14.68$
  Q  0.6645  6.63$  5.85$  14.71$
  Q  0.6645  6.13$  6.67$  15.84$
  Q  -1.3290  6.73$  6.31$  15.38$
  Q  0.6645  10.77$  15.92$  18.01$
  Q  0.6645  11.34$  14.92$  16.94$
  Q  -1.3290  10.82$  15.2$  17.55$
  Q  0.6645  6.27$  13.57$  2.4$
  Q  0.6645  7.26$  14.71$  2.24$
  Q  -1.3290  6.89$  14.05$  2.66$
  Q  0.6645  16.32$  17.84$  2.52$
  Q  0.6645  15.82$  17.32$  3.89$
  Q  -1.3290  16.38$  17.64$  3.35$
  Q  0.6645  20.42$  15.41$  8.62$
  Q  0.6645  21.38$  14.28$  8.38$
  Q  -1.3290  20.65$  14.7$  8.26$
  Q  0.6645  10.69$  2.09$  9.96$
  Q  0.6645  11.45$  0.6$  9.78$
  Q  -1.3290  11.07$  1.29$  10.17$
  Q  0.6645  10.87$  17.14$  19.81$
  Q  0.6645  10.38$  18.11$  18.67$
  Q  -1.3290  10.89$  17.54$  19.04$
  Q  0.6645  5.76$  18.47$  4.94$
  Q  0.6645  6.77$  18.61$  6.22$
  Q  -1.3290  6.03$  18.46$  5.82$
  Q  0.6645  9.25$  2.06$  12.94$
  Q  0.6645  8.73$  2.56$  14.32$
  Q  -1.3290  8.87$  2.61$  13.47$
  Q  0.6645  7.01$  21.41$  7.4$
  Q  0.6645  6.74$  21.75$  8.84$
  Q  -1.3290  6.54$  21.71$  8.03$
  Q  0.6645  15.9$  2.78$  18.35$
  Q  0.6645  14.49$  2.78$  18.08$
  Q  -1.3290  15.26$  2.98$  17.88$
  Q  0.6645  5.45$  18.57$  12.16$
  Q  0.6645  5.77$  19.69$  13.15$
  Q  -1.3290  5.61$  19.36$  12.38$
  Q  0.6645  5.97$  19$  9.2$
  Q  0.6645  6.73$  19.03$  10.57$
  Q  -1.3290  6.65$  18.88$  9.72$
  Q  0.6645  12.11$  13.64$  20.22$
  Q  0.6645  11.08$  13.99$  19.01$
  Q  -1.3290  11.44$  13.53$  19.66$
  Q  0.6645  8.04$  5.32$  6.95$
  Q  0.6645  9.5$  5.66$  7.14$
  Q  -1.3290  8.79$  5.3$  7.36$
  Q  0.6645  5.23$  15.06$  6.23$
  Q  0.6645  5.56$  16.64$  6.66$
  Q  -1.3290  5.67$  15.72$  6.6$
  Q  0.6645  15.86$  15.6$  15.69$
  Q  0.6645  16.74$  15.19$  14.45$
  Q  -1.3290  16.54$  15.3$  15.28$
  Q  0.6645  2.85$  13.22$  3.67$
  Q  0.6645  2.47$  12.71$  2.34$
  Q  -1.3290  2.94$  12.76$  3.01$
  Q  0.6645  10.36$  17.04$  16$
  Q  0.6645  10.71$  18.5$  16.33$
  Q  -1.3290  10.59$  17.84$  15.82$
  Q  0.6645  4.85$  19.22$  7.36$
  Q  0.6645  4.18$  20.28$  8.34$
  Q  -1.3290  4.51$  19.52$  8.09$
  Q  0.6645  17.26$  8.87$  13.77$
  Q  0.6645  18.1$  8.56$  14.93$
  Q  -1.3290  17.98$  8.73$  14.08$
  Q  0.6645  13.98$  14.29$  21.97$
  Q  0.6645  14.41$  15.54$  21.04$
  Q  -1.3290  13.88$  15$  21.5$
  Q  0.6645  12.73$  19.87$  14.46$
  Q  0.6645  12.15$  18.53$  14.67$
  Q  -1.3290  12.72$  19.05$  14.35$
  Q  0.6645  5.21$  14.44$  19.05$
  Q  0.6645  5.14$  13.25$  18.06$
  Q  -1.3290  5.42$  13.67$  18.75$
  Q  0.6645  3.66$  18.13$  14.88$
  Q  0.6645  5.13$  18.12$  15.25$
  Q  -1.3290  4.32$  18.07$  15.39$
  Q  0.6645  16.16$  8.77$  9.04$
  Q  0.6645  15.74$  7.5$  8.23$
  Q  -1.3290  15.64$  8.34$  8.5$
  Q  0.6645  2$  16.65$  6.68$
  Q  0.6645  3.05$  17.53$  6.05$
  Q  -1.3290  2.8$  16.82$  6.38$
  Q  0.6645  3.72$  9.29$  9.61$
  Q  0.6645  4.82$  8.25$  9.48$
  Q  -1.3290  4.49$  8.98$  9.71$
  Q  0.6645  6.59$  16.55$  1.04$
  Q  0.6645  5.29$  16.66$  1.78$
  Q  -1.3290  6.02$  16.97$  1.48$
  Q  0.6645  3.29$  5.83$  8.99$
  Q  0.6645  2.22$  6.37$  8$
  Q  -1.3290  2.99$  6.1$  8.25$
  Q  0.6645  19.95$  5.75$  14.15$
  Q  0.6645  18.87$  4.65$  13.99$
  Q  -1.3290  19.45$  5.22$  13.71$
  Q  0.6645  12.74$  2.56$  11.81$
  Q  0.6645  12.05$  3.82$  12.27$
  Q  -1.3290  12.67$  3.28$  12.23$
  Q  0.6645  14.58$  12.24$  4.86$
  Q  0.6645  13.71$  13.18$  5.79$
  Q  -1.3290  14.43$  12.74$  5.52$
  Q  0.6645  10.38$  8.42$  7.12$
  Q  0.6645  11.67$  9.13$  6.87$
  Q  -1.3290  11.1$  8.5$  6.77$
  Q  0.6645  8.9$  22.02$  6.52$
  Q  0.6645  8.84$  20.53$  6.47$
  Q  -1.3290  8.59$  21.28$  6.23$
  Q  0.6645  11.65$  15.62$  0.52$
  Q  0.6645  10.25$  16.31$  0.59$
  Q  -1.3290  11.08$  16.25$  0.38$
  Q  0.6645  10.87$  0.71$  6.95$
  Q  0.6645  10.28$  2.13$  6.75$
  Q  -1.3290  10.44$  1.37$  7.15$
  Q  0.6645  4.31$  7.8$  13.1$
  Q  0.6645  4.79$  8.47$  11.81$
  Q  -1.3290  4.86$  7.99$  12.48$
  Q  0.6645  14.15$  7.18$  14.97$
  Q  0.6645  14.77$  6.2$  13.85$
  Q  -1.3290  14.51$  6.46$  14.64$
  Q  0.6645  12.99$  18.25$  2.44$
  Q  0.6645  12.26$  19.59$  2.35$
  Q  -1.3290  12.52$  18.87$  2.72$
  Q  0.6645  18.79$  8.01$  7.51$
  Q  0.6645  17.89$  6.93$  6.87$
  Q  -1.3290  18.62$  7.37$  6.97$
  Q  0.6645  2.32$  14.54$  12.17$
  Q  0.6645  2.24$  15.66$  13.1$
  Q  -1.3290  2.23$  14.86$  12.92$
  Q  0.6645  14.68$  19.33$  11.13$
  Q  0.6645  14.51$  19.38$  12.62$
  Q  -1.3290  14.68$  19.71$  11.85$
  Q  0.6645  15.95$  5.95$  16.11$
  Q  0.6645  15.94$  4.67$  16.96$
  Q  -1.3290  16.3$  5.35$  16.6$
  Q  0.6645  5.13$  10.59$  17.53$
  Q  0.6645  5.3$  9.17$  17.21$
  Q  -1.3290  5.58$  9.89$  17.47$
  Q  0.6645  15.35$  6.5$  19.09$
  Q  0.6645  16.17$  5.22$  19.51$
  Q  -1.3290  15.61$  5.86$  19.6$
  Q  0.6645  3.08$  12.15$  17.28$
  Q  0.6645  4.1$  11.96$  16.16$
  Q  -1.3290  3.83$  11.9$  16.95$
  Q  0.6645  8.01$  8.85$  20.29$
  Q  0.6645  6.98$  9.22$  19.04$
  Q  -1.3290  7.32$  8.8$  19.76$
  Q  0.6645  9.62$  2.89$  19.76$
  Q  0.6645  8.88$  3.67$  18.78$
  Q  -1.3290  8.93$  3.19$  19.43$
  Q  0.6645  20.73$  10.65$  9.5$
  Q  0.6645  19.89$  11.3$  8.47$
  Q  -1.3290  20.37$  10.69$  8.78$
  Q  0.6645  14.26$  4.44$  12.31$
  Q  0.6645  14.86$  5.72$  11.59$
  Q  -1.3290  14.81$  5.05$  12.14$
  Q  0.6645  1.68$  8.07$  10.57$
  Q  0.6645  1.5$  6.83$  11.53$
  Q  -1.3290  1.62$  7.25$  10.76$
  Q  0.6645  14.41$  9.82$  21.23$
  Q  0.6645  14.5$  9.36$  19.73$
  Q  -1.3290  14.38$  9.87$  20.37$
  Q  0.6645  4.06$  12.26$  13.64$
  Q  0.6645  3.38$  13.62$  14.16$
  Q  -1.3290  3.95$  12.94$  14.18$
  Q  0.6645  10.9$  13.87$  2.79$
  Q  0.6645  10.42$  13.94$  1.4$
  Q  -1.3290  11.02$  13.96$  1.95$
  Q  0.6645  9.31$  18.04$  2.74$
  Q  0.6645  8.83$  16.64$  2.39$
  Q  -1.3290  9.21$  17.18$  2.86$
  Q  0.6645  4.7$  12.46$  1.65$
  Q  0.6645  5.73$  12.62$  0.52$
  Q  -1.3290  5.2$  12.89$  1.12$
  Q  0.6645  13.74$  19.46$  8.67$
  Q  0.6645  13.3$  18.15$  9.16$
  Q  -1.3290  13.41$  18.95$  9.23$
  Q  0.6645  8.76$  3.17$  8.57$
  Q  0.6645  8.32$  3.6$  9.9$
  Q  -1.3290  8.79$  3.18$  9.4$
  Q  0.6645  14.54$  6.31$  4.29$
  Q  0.6645  13.1$  5.84$  4.91$
  Q  -1.3290  13.69$  6.06$  4.32$
  Q  0.6645  -0.1$  9.25$  12.48$
  Q  0.6645  0.14$  10.63$  13.19$
  Q  -1.3290  0.35$  9.84$  12.93$
  Q  0.6645  1.27$  13.35$  9.72$
  Q  0.6645  1.48$  12.39$  8.49$
  Q  -1.3290  1.04$  12.84$  9.07$
  Q  0.6645  5.89$  3.23$  16.84$
  Q  0.6645  6.81$  4.56$  16.76$
  Q  -1.3290  6.08$  4.07$  16.8$
  Q  0.6645  4.08$  9.43$  3.69$
  Q  0.6645  4.17$  10.93$  3.51$
  Q  -1.3290  4.47$  10.19$  3.72$
  Q  0.6645  5.33$  15.87$  11.96$
  Q  0.6645  4.75$  16.78$  10.8$
  Q  -1.3290  5.2$  16.59$  11.5$
  Q  0.6645  19.21$  16.47$  10.22$
  Q  0.6645  18.38$  17.65$  9.97$
  Q  -1.3290  18.49$  16.86$  10.1$
  Q  0.6645  12.68$  22.14$  5.9$
  Q  0.6645  12.43$  20.65$  6.18$
  Q  -1.3290  12.21$  21.45$  6.13$
  Q  0.6645  2.75$  13.55$  5.79$
  Q  0.6645  1.62$  14.49$  5.46$
  Q  -1.3290  2.14$  13.85$  5.33$
  Q  0.6645  11.79$  10.51$  19.77$
  Q  0.6645  10.69$  10.61$  18.8$
  Q  -1.3290  11.14$  10.2$  19.36$
  Q  0.6645  11.71$  18.07$  12.69$
  Q  0.6645  10.47$  17.53$  12.25$
  Q  -1.3290  11.27$  17.5$  12.34$
  Q  0.6645  14.64$  19.93$  6.09$
  Q  0.6645  15.54$  20.7$  6.87$
  Q  -1.3290  15.01$  20.09$  6.79$
  Q  0.6645  13.85$  17.01$  16.89$
  Q  0.6645  14.45$  17.41$  15.59$
  Q  -1.3290  14.17$  16.86$  16.14$
  Q  0.6645  15.19$  9.73$  1.84$
  Q  0.6645  15.61$  8.63$  0.84$
  Q  -1.3290  15.1$  9.19$  1.2$
  Q  0.6645  9.81$  13.02$  20.79$
  Q  0.6645  8.67$  12.61$  21.61$
  Q  -1.3290  9.3$  13.09$  21.45$
  Q  0.6645  19.19$  10.34$  13.49$
  Q  0.6645  19.03$  11.12$  12.38$
  Q  -1.3290  19.38$  10.97$  13.07$
  Q  0.6645  4.42$  13.63$  7.52$
  Q  0.6645  4.82$  12.61$  6.46$
  Q  -1.3290  4.26$  13.06$  6.94$
  Q  0.6645  18.85$  14.72$  3.96$
  Q  0.6645  18.44$  16.13$  3.88$
  Q  -1.3290  18.27$  15.31$  4.01$
  Q  0.6645  5.38$  12.71$  9.94$
  Q  0.6645  5.76$  14.2$  9.97$
  Q  -1.3290  5.24$  13.54$  9.95$
  Q  0.6645  19.06$  12.72$  14.62$
  Q  0.6645  19.55$  13.96$  15.31$
  Q  -1.3290  19.26$  13.53$  14.67$
  Q  0.6645  17.58$  10.97$  18.54$
  Q  0.6645  16.64$  11.65$  17.53$
  Q  -1.3290  17.16$  11.06$  17.83$
  Q  0.6645  5.67$  4.42$  10.39$
  Q  0.6645  6.39$  4.05$  9.12$
  Q  -1.3290  6.33$  4.4$  9.91$
  Q  0.6645  7.11$  5.56$  4.27$
  Q  0.6645  6.28$  6.3$  5.18$
  Q  -1.3290  6.85$  5.74$  5.01$
  Q  0.6645  12.9$  22.27$  14.43$
  Q  0.6645  11.59$  21.8$  14.02$
  Q  -1.3290  12.29$  21.72$  14.42$
  Q  0.6645  9.14$  18.75$  15.01$
  Q  0.6645  7.73$  18.48$  15.56$
  Q  -1.3290  8.29$  18.72$  14.96$
  Q  0.6645  7.01$  5.73$  12.67$
  Q  0.6645  7.19$  4.31$  13.02$
  Q  -1.3290  6.76$  5.01$  12.96$
  Q  0.6645  8.06$  5.71$  18.39$
  Q  0.6645  8.46$  6.18$  17$
  Q  -1.3290  8.54$  5.76$  17.71$
  Q  0.6645  17.41$  2.57$  8.4$
  Q  0.6645  16.54$  3.21$  7.26$
  Q  -1.3290  16.89$  3.16$  8.02$
  Q  0.6645  3.9$  7.15$  16.38$
  Q  0.6645  4.71$  6.56$  17.6$
  Q  -1.3290  4.56$  7.1$  16.92$
  Q  0.6645  9.6$  20.14$  11.26$
  Q  0.6645  8.8$  19.24$  12.33$
  Q  -1.3290  9.03$  19.95$  11.9$
  Q  0.6645  17.99$  9.27$  16.87$
  Q  0.6645  17.83$  7.8$  17.4$
  Q  -1.3290  17.95$  8.4$  16.81$
  Q  0.6645  9.72$  14.23$  4.76$
  Q  0.6645  9.66$  12.79$  4.03$
  Q  -1.3290  10.01$  13.51$  4.36$
  Q  0.6645  15.97$  2.24$  11.66$
  Q  0.6645  16.26$  3.74$  11.83$
  Q  -1.3290  16.46$  2.9$  11.79$
  Q  0.6645  11.91$  3.34$  18.34$
  Q  0.6645  12.74$  4.05$  19.29$
  Q  -1.3290  12.49$  3.41$  18.91$
  Q  0.6645  8.01$  7.14$  2.36$
  Q  0.6645  6.51$  6.93$  1.93$
  Q  -1.3290  7.24$  6.8$  2.39$
  Q  0.6645  11.73$  3.92$  16.38$
  Q  0.6645  10.27$  4.49$  16.73$
  Q  -1.3290  10.9$  3.91$  16.67$
  Q  0.6645  11.76$  6.65$  6.63$
  Q  0.6645  12.01$  5.41$  7.52$
  Q  -1.3290  11.83$  5.84$  6.8$
  Q  0.6645  18.55$  13.54$  11.14$
  Q  0.6645  18.62$  13.83$  12.64$
  Q  -1.3290  18.75$  13.98$  11.82$
  Q  0.6645  17.37$  14.38$  5.67$
  Q  0.6645  16.42$  13.27$  6.03$
  Q  -1.3290  17.02$  13.83$  6.2$
  Q  0.6645  13.34$  4.71$  15.2$
  Q  0.6645  13.24$  3.46$  14.28$
  Q  -1.3290  13.27$  3.9$  15.01$
  Q  0.6645  15.78$  8.52$  17.31$
  Q  0.6645  14.42$  8.02$  17.72$
  Q  -1.3290  15.25$  8.13$  17.78$
  Q  0.6645  10.57$  7.79$  15.74$
  Q  0.6645  10.79$  6.35$  15.24$
  Q  -1.3290  10.91$  7.01$  15.75$
  Q  0.6645  16.22$  17.17$  6.37$
  Q  0.6645  14.97$  18.03$  6.3$
  Q  -1.3290  15.4$  17.29$  6.26$
  Q  0.6645  14.37$  11.79$  19.87$
  Q  0.6645  14.78$  12.58$  18.74$
  Q  -1.3290  14.56$  12.49$  19.53$
  Q  0.6645  9.92$  15.72$  12.74$
  Q  0.6645  9.29$  14.4$  12.88$
  Q  -1.3290  9.8$  14.99$  13.1$
  Q  0.6645  5.66$  3.85$  6.66$
  Q  0.6645  6.21$  2.5$  7.19$
  Q  -1.3290  5.83$  3.28$  7.24$
  Q  0.6645  14.94$  3.71$  8.96$
  Q  0.6645  13.88$  2.82$  8.31$
  Q  -1.3290  14.17$  3.5$  8.75$
  Q  0.6645  13.77$  11.63$  1.52$
  Q  0.6645  12.87$  12.84$  1.47$
  Q  -1.3290  13.57$  12.4$  1.33$
  Q  0.6645  6.16$  14.99$  14.58$
  Q  0.6645  7.04$  14.63$  15.89$
  Q  -1.3290  6.5$  15.09$  15.37$
  Q  0.6645  4.1$  6.93$  7.01$
  Q  0.6645  4.84$  8.23$  6.49$
  Q  -1.3290  4.65$  7.4$  6.54$
  Q  0.6645  17.37$  20.23$  9.85$
  Q  0.6645  17.91$  19.29$  8.8$
  Q  -1.3290  17.88$  19.65$  9.55$
  Q  0.6645  18.25$  16.44$  15.64$
  Q  0.6645  19.12$  17.44$  14.85$
  Q  -1.3290  18.56$  17.22$  15.42$
  Q  0.6645  2.66$  15.36$  9.95$
  Q  0.6645  3.29$  14.08$  10.26$
  Q  -1.3290  2.65$  14.62$  10.29$
  Q  0.6645  18.39$  12.24$  5.38$
  Q  0.6645  19.73$  11.61$  5.4$
  Q  -1.3290  18.91$  11.61$  5.57$
  Q  0.6645  8.52$  0.79$  10.16$
  Q  0.6645  7.84$  -0.42$  10.74$
  Q  -1.3290  7.86$  0.32$  10.35$
  Q  0.6645  12.2$  6.52$  1.71$
  Q  0.6645  12.01$  6.05$  0.23$
  Q  -1.3290  11.78$  6.21$  1.03$
  Q  0.6645  12.35$  4.11$  9.42$
  Q  0.6645  10.71$  4.18$  9.18$
  Q  -1.3290  11.52$  4.44$  9.36$
  Q  0.6645  16.94$  13.79$  2.44$
  Q  0.6645  17.02$  12.83$  1.33$
  Q  -1.3290  17.01$  13.01$  2.14$
  Q  0.6645  16.83$  15.23$  19.08$
  Q  0.6645  15.8$  15.74$  18.22$
  Q  -1.3290  16.45$  15.83$  18.66$
  Q  0.6645  4.56$  3.79$  15.28$
  Q  0.6645  5.04$  3.82$  13.85$
  Q  -1.3290  4.45$  3.84$  14.47$
  Q  0.6645  19.44$  8.16$  12.75$
  Q  0.6645  19.99$  7.54$  11.67$
  Q  -1.3290  20.04$  8.07$  12.26$
  Q  0.6645  3.73$  16.18$  16.22$
  Q  0.6645  4.3$  14.74$  15.96$
  Q  -1.3290  3.71$  15.32$  16.25$
  Q  0.6645  13.58$  15.94$  2.78$
  Q  0.6645  13.58$  16.05$  1.27$
  Q  -1.3290  13.83$  16.22$  2.07$
  Q  0.6645  12.42$  7.67$  17.3$
  Q  0.6645  11.85$  8.52$  18.34$
  Q  -1.3290  12.42$  8.04$  18.02$
  Q  0.6645  18.55$  8.15$  9.74$
  Q  0.6645  19.02$  9.4$  9.17$
  Q  -1.3290  18.45$  8.83$  9.27$
  Q  0.6645  11.74$  9.21$  3.39$
  Q  0.6645  11.12$  8.77$  4.7$
  Q  -1.3290  11.12$  9.1$  3.94$
  Q  0.6645  3.8$  16.44$  8.16$
  Q  0.6645  3.67$  17.87$  8.8$
  Q  -1.3290  3.72$  17.02$  8.81$
  Q  0.6645  1.7$  10.11$  11.56$
  Q  0.6645  1.76$  10.82$  10.23$
  Q  -1.3290  2.05$  10.35$  10.84$
  Q  0.6645  6.09$  18.1$  17.47$
  Q  0.6645  6.78$  16.87$  16.76$
  Q  -1.3290  6.69$  17.68$  16.97$
  Q  0.6645  2.2$  6.9$  14.02$
  Q  0.6645  3.52$  6.17$  14.29$
  Q  -1.3290  3.01$  6.83$  14.19$
  Q  0.6645  5.6$  18.68$  2.51$
  Q  0.6645  5.73$  19.96$  3.33$
  Q  -1.3290  5.34$  19.27$  3.04$
  Q  0.6645  5.77$  7.04$  7.99$
  Q  0.6645  6.68$  6.33$  8.99$
  Q  -1.3290  6.25$  6.98$  8.66$
  Q  0.6645  6.66$  13.94$  12.58$
  Q  0.6645  5.36$  13.86$  13.24$
  Q  -1.3290  6.01$  14.27$  12.95$
  Q  0.6645  8.67$  1.08$  16.67$
  Q  0.6645  9.99$  1.8$  16.43$
  Q  -1.3290  9.46$  1.15$  16.39$
  Q  0.6645  13.36$  7.76$  3.23$
  Q  0.6645  13.49$  8.57$  1.94$
  Q  -1.3290  13.08$  8.23$  2.58$
  Q  0.6645  9.13$  13.97$  17.05$
  Q  0.6645  9.04$  14.33$  15.56$
  Q  -1.3290  8.78$  13.95$  16.27$
  Q  0.6645  15.82$  5.39$  6.68$
  Q  0.6645  16.7$  4.97$  7.88$
  Q  -1.3290  16.32$  5.51$  7.34$
  Q  0.6645  8.89$  16.22$  4.68$
  Q  0.6645  7.75$  15.68$  5.56$
  Q  -1.3290  8.55$  15.83$  5.33$
  Q  0.6645  15.5$  17.84$  13.49$
  Q  0.6645  16.58$  17.9$  14.64$
  Q  -1.3290  15.97$  18.17$  14.15$
  Q  0.6645  9.99$  7.34$  1.42$
  Q  0.6645  10.07$  8.4$  2.57$
  Q  -1.3290  9.71$  7.95$  1.95$
  Q  0.6645  3.85$  19.63$  4.94$
  Q  0.6645  2.62$  20.36$  5.26$
  Q  -1.3290  3.07$  19.68$  5.22$
  Q  0.6645  15.77$  10.48$  4.35$
  Q  0.6645  15.72$  11.45$  3.1$
  Q  -1.3290  15.48$  10.82$  3.61$
  Q  0.6645  12.52$  6.76$  19.87$
  Q  0.6645  13.64$  5.96$  20.46$
  Q  -1.3290  12.85$  6.12$  20.32$
  Q  0.6645  14.47$  20.96$  3.64$
  Q  0.6645  13.68$  19.74$  3.78$
  Q  -1.3290  14.28$  20.25$  4.01$
  Q  0.6645  19.83$  7.44$  16.09$
  Q  0.6645  21.15$  7.49$  15.41$
  Q  -1.3290  20.47$  7.14$  15.65$
  Q  0.6645  15.62$  15.85$  1.74$
  Q  0.6645  16.89$  15.64$  2.57$
  Q  -1.3290  16.4$  15.56$  1.89$
  Q  0.6645  17.96$  13.03$  7.92$
  Q  0.6645  19.28$  13.47$  8.57$
  Q  -1.3290  18.55$  13.04$  8.51$
  Q  0.6645  14.59$  0.53$  16.51$
  Q  0.6645  14.96$  1.88$  16.06$
  Q  -1.3290  15$  1.05$  16.01$
  Q  0.6645  8.51$  17.5$  13.52$
  Q  0.6645  7.94$  17$  12.16$
  Q  -1.3290  8.51$  17.4$  12.65$
  Q  0.6645  3.2$  11.4$  7.45$
  Q  0.6645  1.75$  10.66$  7.33$
  Q  -1.3290  2.48$  10.99$  7.73$
  Q  0.6645  12.3$  17.65$  6.12$
  Q  0.6645  12.11$  18.41$  4.8$
  Q  -1.3290  12.23$  18.34$  5.64$
  Q  0.6645  6.03$  1.42$  10.55$
  Q  0.6645  4.67$  0.81$  10.94$
  Q  -1.3290  5.22$  1.43$  10.83$
  Q  0.6645  19.04$  5.78$  11.45$
  Q  0.6645  19.37$  5.87$  9.92$
  Q  -1.3290  19.18$  6.18$  10.71$
  Q  0.6645  13.74$  -0.33$  8.29$
  Q  0.6645  14.66$  0.45$  9.28$
  Q  -1.3290  14.14$  0.34$  8.59$
  Q  0.6645  6.77$  12.32$  20.14$
  Q  0.6645  7.12$  10.86$  20.74$
  Q  -1.3290  6.8$  11.67$  20.73$
  Q  0.6645  10.27$  20.02$  8.91$
  Q  0.6645  11.59$  19.68$  9.63$
  Q  -1.3290  10.85$  20.05$  9.49$
  Q  0.6645  14.53$  -0.07$  12.83$
  Q  0.6645  14.93$  1.24$  13.48$
  Q  -1.3290  14.64$  0.76$  12.87$
  Q  0.6645  16.38$  8.01$  4.56$
  Q  0.6645  16.47$  6.84$  3.49$
  Q  -1.3290  16.2$  7.27$  4.21$
  Q  0.6645  6.03$  1.64$  12.56$
  Q  0.6645  7.35$  1.92$  13.16$
  Q  -1.3290  6.57$  1.57$  13.18$
  Q  0.6645  3.48$  3.75$  11.05$
  Q  0.6645  3.55$  5.25$  11.63$
  Q  -1.3290  3.68$  4.6$  11.06$
  Q  0.6645  8.22$  16.28$  -0.42$
  Q  0.6645  8.58$  14.97$  0$
  Q  -1.3290  8.39$  15.73$  0.15$
  Q  0.6645  17.38$  9.9$  5.57$
  Q  0.6645  16.55$  9.07$  6.54$
  Q  -1.3290  16.69$  9.49$  5.81$
  Q  0.6645  10.05$  9.8$  21.1$
  Q  0.6645  9.22$  9.36$  22.26$
  Q  -1.3290  9.33$  9.64$  21.51$
  Q  0.6645  5.97$  10.5$  2.75$
  Q  0.6645  7.3$  11.14$  2.42$
  Q  -1.3290  6.67$  10.62$  2.27$
  Q  0.6645  10.05$  3.49$  4.86$
  Q  0.6645  10.89$  4.48$  5.79$
  Q  -1.3290  10.64$  3.71$  5.45$
  Q  0.6645  5.81$  5.46$  19.84$
  Q  0.6645  6.73$  6.76$  19.8$
  Q  -1.3290  6.52$  5.94$  19.68$
  Q  0.6645  7.93$  18.9$  8.3$
  Q  0.6645  8.94$  18.16$  7.23$
  Q  -1.3290  8.52$  18.81$  7.61$
  Q  0.6645  10.65$  0.7$  12$
  Q  0.6645  9.65$  -0.17$  12.77$
  Q  -1.3290  10.22$  0.47$  12.68$
*
