! NoMOPrint PrintBasis #MINIPRINT SMALLPRINT LARGEPRINT
! ALLPOP XYZFILE
#! BP86 3-21G   TightSCF
! ENGRAD
! B3LYP NormalPNO PModel #DecontractAux
#! VerySlowConv 
 %maxcore 5000
 %scf  maxiter   500  end 

%pal
    nprocs 32
end

%basis
    NewGTO O    # New basis for oxygen
        "aug-cc-pVTZ"
    end
    NewGTO C    # New basis for carbon
        "aug-cc-pVTZ"
    end
    NewGTO H    # New basis for hydrogen
        "cc-pVTZ"
    end
end

* xyz 0   1
  C  9.29  10.45  12.2  #1
  H  8.88  9.52  11.78  #2
  H  8.35  11.01  12.53  #3
  C  9.95  11.38  11.18  #4
  H  9.2  11.73  10.46  #5
  H  10.3  12.31  11.73  #6
  C  11.14  10.74  10.44  #7
  H  11.11  9.67  10.52  #8
  H  12  11.07  11.05  #9
  C  11.5  11.09  9.01  #10
  H  11.64  12.15  8.86  #11
  H  10.71  10.69  8.47  #12
  O  12.72  10.38  8.57  #13
  H  13.48  10.58  9.14  #14
  O  10.11  10.14  13.37  #15
  H  10.83  9.54  12.98  #16
  O  7.19  12.51  15.11  #17
  H  8.13  12.78  15.2  #18
  H  7.04  12.18  14.19  #19
  O  6.86  10.46  10.27  #20
  H  6.66  10.3  9.36  #21
  H  6.9  9.6  10.66  #22
  O  6.88  13.16  8.69  #23
  H  7.44  13.52  9.37  #24
  H  6.2  12.82  9.23  #25
  O  13.26  8.18  6.57  #26
  H  13.02  8.94  7.1  #27
  H  12.85  8.29  5.72  #28
  O  9.66  14.59  13.01  #29
  H  9.83  13.85  13.6  #30
  H  8.75  14.8  12.91  #31
  O  8.69  14.87  10.21  #32
  H  9.04  15.31  9.43  #33
  H  9.46  14.75  10.77  #34
  O  8.86  9.08  15.66  #35
  H  8.64  9.63  16.46  #36
  H  9.42  9.49  14.94  #37
  O  11.61  8.2  4.26  #38
  H  11.35  7.29  4.2  #39
  H  12.23  8.16  3.53  #40
  O  4.42  12.29  9.78  #41
  H  4.08  12.91  10.49  #42
  H  3.87  12.42  8.92  #43
  O  10.37  7.14  6.81  #44
  H  9.66  7.62  7.21  #45
  H  11.01  7.7  6.31  #46
  O  9.96  12.41  15.16  #47
  H  10.63  12.55  15.85  #48
  H  10.38  11.71  14.6  #49
  O  6.96  12.51  17.99  #50
  H  7.52  13.32  18.14  #51
  H  6.95  12.47  16.98  #52
  O  9.62  16  15.93  #53
  H  9.24  16.07  15.04  #54
  H  10.46  16.48  15.83  #55
  O  11.3  13.3  6.37  #56
  H  11.13  14.22  6.55  #57
  H  12.24  13.08  6.12  #58
  O  14.87  11.15  10.19  #59
  H  15.18  11.47  9.32  #60
  H  15.18  10.22  10.16  #61
  O  15.69  11.36  7.67  #62
  H  15.97  10.64  7.07  #63
  H  15.19  11.83  7  #64
  O  9.15  10.92  6.43  #65
  H  8.4  11.54  6.37  #66
  H  9.87  11.51  6.45  #67
  O  6.97  7.89  11.01  #68
  H  7.61  7.15  11.11  #69
  H  6.12  7.57  11.23  #70
  O  13.31  7.1  10.29  #71
  H  13.01  6.53  9.62  #72
  H  12.54  7.32  10.92  #73
  O  8.34  8.8  8.1  #74
  H  8.31  8.64  9.06  #75
  H  8.83  9.65  7.99  #76
  O  6.62  15.04  6.77  #77
  H  6.61  14.37  7.49  #78
  H  6.79  14.52  5.98  #79
  O  11.78  8.19  12.47  #80
  H  12.69  8.28  12.72  #81
  H  11.43  7.47  12.99  #82
  O  11.53  15.39  9.79  #83
  H  12.33  14.76  9.9  #84
  H  11.42  15.43  8.78  #85
  O  5.83  14.93  15.57  #86
  H  6.2  14.08  15.22  #87
  H  6.1  14.78  16.48  #88
  O  16.09  8.84  6.43  #89
  H  16.38  8.71  5.52  #90
  H  15.17  8.74  6.36  #91
  O  6.14  11.93  12.54  #92
  H  5.25  12.29  12.46  #93
  H  6.32  11.3  11.83  #94
  O  12.18  16.09  13.92  #95
  H  11.92  16.87  13.36  #96
  H  11.62  15.39  13.56  #97
  O  8.12  17.31  13.62  #98
  H  9  17.75  13.56  #99
  H  7.78  17.14  12.73  #100
  O  15.73  8.45  9.59  #101
  H  14.86  8.07  9.67  #102
  H  15.97  8.56  8.68  #103
  O  13.8  5.84  7.75  #104
  H  13.57  6.64  7.35  #105
  H  13.02  5.25  7.56  #106
  Q  0.6645  6.91$  15.32$  2.82$
  Q  0.6645  6.76$  16.72$  2.18$
  Q  -1.3290  6.64$  15.88$  2.25$
  Q  0.6645  7.64$  18.61$  9.86$
  Q  0.6645  7.53$  18.89$  8.36$
  Q  -1.3290  7.63$  19.12$  9.17$
  Q  0.6645  8.59$  2.38$  7.12$
  Q  0.6645  7.46$  3.22$  6.45$
  Q  -1.3290  8.18$  3.09$  6.86$
  Q  0.6645  20.57$  9.95$  10.65$
  Q  0.6645  20.12$  8.77$  11.46$
  Q  -1.3290  20.23$  9.57$  11.32$
  Q  0.6645  7.52$  19.15$  16.22$
  Q  0.6645  8.53$  18.01$  16.48$
  Q  -1.3290  8.22$  18.77$  16.54$
  Q  0.6645  11.88$  7.98$  20.4$
  Q  0.6645  11.03$  6.78$  20.85$
  Q  -1.3290  11.57$  7.41$  20.95$
  Q  0.6645  10.8$  18.76$  12.3$
  Q  0.6645  10.81$  18.87$  13.9$
  Q  -1.3290  10.48$  18.9$  13.11$
  Q  0.6645  18.43$  7.12$  14.73$
  Q  0.6645  18.21$  8.43$  14.07$
  Q  -1.3290  18.64$  7.9$  14.55$
  Q  0.6645  11.2$  4.73$  8.94$
  Q  0.6645  11.84$  4.37$  10.35$
  Q  -1.3290  11.46$  4.88$  9.75$
  Q  0.6645  11.31$  7.68$  17.56$
  Q  0.6645  10.06$  7.82$  16.59$
  Q  -1.3290  10.76$  7.45$  16.91$
  Q  0.6645  20.06$  15.02$  5.7$
  Q  0.6645  19.9$  15.36$  4.23$
  Q  -1.3290  19.73$  15.42$  5.07$
  Q  0.6645  15.67$  9.38$  19.78$
  Q  0.6645  14.92$  8.85$  21.1$
  Q  -1.3290  15.32$  9.41$  20.59$
  Q  0.6645  8.95$  9.19$  -0.44$
  Q  0.6645  8.63$  8.36$  0.86$
  Q  -1.3290  8.46$  8.74$  0.09$
  Q  0.6645  6.55$  7.16$  19.52$
  Q  0.6645  7.54$  7.45$  20.72$
  Q  -1.3290  7.14$  6.98$  20.15$
  Q  0.6645  5.97$  12.14$  20.9$
  Q  0.6645  5.83$  12.42$  19.42$
  Q  -1.3290  5.65$  12.58$  20.26$
  Q  0.6645  10.25$  16.56$  6.98$
  Q  0.6645  11.75$  16.51$  6.53$
  Q  -1.3290  10.99$  16.18$  6.81$
  Q  0.6645  8.57$  15$  4.28$
  Q  0.6645  7.95$  13.78$  3.71$
  Q  -1.3290  8$  14.4$  4.26$
  Q  0.6645  10.85$  12.55$  -0.1$
  Q  0.6645  11.26$  12.23$  1.32$
  Q  -1.3290  11.29$  12.14$  0.49$
  Q  0.6645  19.88$  14.45$  8.97$
  Q  0.6645  19.82$  12.92$  9.05$
  Q  -1.3290  20.19$  13.67$  9.08$
  Q  0.6645  14.98$  3.87$  15.64$
  Q  0.6645  14.07$  4.66$  14.52$
  Q  -1.3290  14.62$  4.54$  15.22$
  Q  0.6645  14.57$  14.41$  18.65$
  Q  0.6645  14.37$  13.39$  19.7$
  Q  -1.3290  14.43$  13.66$  18.93$
  Q  0.6645  3.83$  9.81$  14.38$
  Q  0.6645  5.13$  10.19$  13.47$
  Q  -1.3290  4.5$  9.71$  13.81$
  Q  0.6645  3.29$  2.22$  7.37$
  Q  0.6645  3.93$  3.54$  7.76$
  Q  -1.3290  3.3$  3.04$  7.47$
  Q  0.6645  13.83$  16.19$  13.07$
  Q  0.6645  15.24$  15.42$  13.06$
  Q  -1.3290  14.63$  15.98$  12.8$
  Q  0.6645  11.51$  15.34$  21.44$
  Q  0.6645  12.88$  15.06$  20.8$
  Q  -1.3290  12.04$  15.1$  20.82$
  Q  0.6645  21.22$  11.64$  15.53$
  Q  0.6645  21.03$  10.25$  15.09$
  Q  -1.3290  21.41$  10.98$  15.1$
  Q  0.6645  2.89$  12.73$  12.93$
  Q  0.6645  3.8$  14.05$  12.9$
  Q  -1.3290  3.54$  13.27$  12.67$
  Q  0.6645  19.8$  8.73$  6.92$
  Q  0.6645  18.34$  8.25$  6.79$
  Q  -1.3290  19.01$  8.56$  7.19$
  Q  0.6645  7.06$  20.45$  13.15$
  Q  0.6645  7.41$  22.03$  12.86$
  Q  -1.3290  6.94$  21.3$  12.92$
  Q  0.6645  1.96$  12.87$  7.28$
  Q  0.6645  2.26$  11.38$  7.37$
  Q  -1.3290  2.46$  12.22$  7.39$
  Q  0.6645  11.99$  17.08$  10.71$
  Q  0.6645  12.53$  18.44$  11.26$
  Q  -1.3290  12.1$  17.69$  11.31$
  Q  0.6645  3.86$  16.88$  7.08$
  Q  0.6645  4.93$  15.92$  6.38$
  Q  -1.3290  4.22$  16.44$  6.42$
  Q  0.6645  17.51$  4.83$  14.33$
  Q  0.6645  19.07$  4.97$  14.63$
  Q  -1.3290  18.2$  5.01$  14.83$
  Q  0.6645  9.63$  5.97$  12.91$
  Q  0.6645  9.94$  5.19$  14.34$
  Q  -1.3290  10.13$  5.65$  13.59$
  Q  0.6645  0.88$  5.99$  13.93$
  Q  0.6645  1.08$  7.27$  13.08$
  Q  -1.3290  0.66$  6.72$  13.54$
  Q  0.6645  4$  13.5$  19.3$
  Q  0.6645  3.45$  14.92$  18.88$
  Q  -1.3290  3.39$  14.1$  19.16$
  Q  0.6645  19.27$  4.33$  11.53$
  Q  0.6645  17.96$  3.44$  11.14$
  Q  -1.3290  18.79$  3.63$  11.43$
  Q  0.6645  15.95$  14.5$  15.07$
  Q  0.6645  16.81$  13.72$  14.29$
  Q  -1.3290  16.31$  14.36$  14.38$
  Q  0.6645  14.83$  16.06$  16.32$
  Q  0.6645  16.01$  16.1$  17.36$
  Q  -1.3290  15.53$  15.75$  16.75$
  Q  0.6645  13.21$  12.34$  21.86$
  Q  0.6645  14.27$  11.44$  21.28$
  Q  -1.3290  13.92$  12.17$  21.44$
  Q  0.6645  3.39$  2.39$  16.07$
  Q  0.6645  4.29$  3.23$  15.17$
  Q  -1.3290  4.03$  2.52$  15.51$
  Q  0.6645  7.45$  10.63$  18.02$
  Q  0.6645  7.25$  9.16$  18.54$
  Q  -1.3290  7.63$  9.79$  18.1$
  Q  0.6645  4.53$  5.23$  11.52$
  Q  0.6645  4.02$  6.8$  11.72$
  Q  -1.3290  4.59$  6.15$  11.61$
  Q  0.6645  14.52$  6.26$  11.2$
  Q  0.6645  15.38$  5.21$  12.01$
  Q  -1.3290  15.23$  5.98$  11.64$
  Q  0.6645  17.15$  17.25$  10.29$
  Q  0.6645  18.26$  16.94$  9.28$
  Q  -1.3290  17.45$  16.98$  9.55$
  Q  0.6645  7.65$  16.15$  7.31$
  Q  0.6645  8.57$  17.45$  7.14$
  Q  -1.3290  8.3$  16.7$  7.48$
  Q  0.6645  20.6$  11.13$  3.72$
  Q  0.6645  19.5$  11.3$  2.62$
  Q  -1.3290  19.91$  10.94$  3.27$
  Q  0.6645  5.79$  8.92$  14.84$
  Q  0.6645  7.13$  8.77$  15.5$
  Q  -1.3290  6.27$  8.78$  15.48$
  Q  0.6645  9.86$  3.37$  2.08$
  Q  0.6645  9.08$  4.28$  3.12$
  Q  -1.3290  9.23$  3.61$  2.61$
  Q  0.6645  7.53$  5.14$  6.47$
  Q  0.6645  6.85$  6.21$  5.63$
  Q  -1.3290  6.92$  5.49$  6.04$
  Q  0.6645  6.71$  3.3$  11.47$
  Q  0.6645  6.14$  4.24$  12.5$
  Q  -1.3290  6.75$  3.8$  12.17$
  Q  0.6645  0.78$  11.44$  13.42$
  Q  0.6645  0.99$  12.38$  12.28$
  Q  -1.3290  1.25$  11.88$  12.88$
  Q  0.6645  7.83$  20.02$  6.92$
  Q  0.6645  6.59$  20.66$  7.46$
  Q  -1.3290  7$  20.2$  6.91$
  Q  0.6645  15.5$  12.34$  17.45$
  Q  0.6645  16.34$  12.06$  16.21$
  Q  -1.3290  15.72$  11.93$  16.75$
  Q  0.6645  20.29$  17.31$  8.26$
  Q  0.6645  20.43$  16.8$  9.72$
  Q  -1.3290  20.09$  16.81$  8.92$
  Q  0.6645  12.27$  14$  17.93$
  Q  0.6645  11.76$  15.12$  18.99$
  Q  -1.3290  11.79$  14.63$  18.25$
  Q  0.6645  14.57$  4.36$  2.68$
  Q  0.6645  14.31$  4.22$  1.23$
  Q  -1.3290  14.1$  4.44$  2.02$
  Q  0.6645  16.51$  6.25$  9.77$
  Q  0.6645  15.68$  5.6$  8.52$
  Q  -1.3290  16.35$  5.74$  9.06$
  Q  0.6645  8.89$  5.61$  20.51$
  Q  0.6645  10.06$  5.24$  19.49$
  Q  -1.3290  9.67$  5.33$  20.29$
  Q  0.6645  5.86$  4.47$  17.66$
  Q  0.6645  6.68$  3.76$  18.73$
  Q  -1.3290  5.98$  3.91$  18.28$
  Q  0.6645  12.05$  5.27$  13.38$
  Q  0.6645  12.69$  3.96$  12.86$
  Q  -1.3290  12.63$  4.65$  13.34$
  Q  0.6645  5.65$  4.97$  7.71$
  Q  0.6645  5.55$  5.7$  9.02$
  Q  -1.3290  5.35$  5.08$  8.48$
  Q  0.6645  16.82$  15.12$  9.05$
  Q  0.6645  17.22$  14.05$  8.05$
  Q  -1.3290  17.07$  14.36$  8.82$
  Q  0.6645  4.44$  6.94$  3.43$
  Q  0.6645  2.84$  6.72$  3.53$
  Q  -1.3290  3.69$  6.75$  3.82$
  Q  0.6645  20.67$  11.11$  8.69$
  Q  0.6645  21.92$  11.56$  9.43$
  Q  -1.3290  21.43$  11$  9.04$
  Q  0.6645  8.45$  15.34$  17.18$
  Q  0.6645  7.87$  15.95$  18.4$
  Q  -1.3290  7.99$  15.32$  17.85$
  Q  0.6645  14.48$  20.34$  14.13$
  Q  0.6645  13.05$  20.18$  14.72$
  Q  -1.3290  13.65$  20.38$  14.11$
  Q  0.6645  13.1$  0.23$  13.5$
  Q  0.6645  12.5$  1.29$  12.54$
  Q  -1.3290  12.88$  1.01$  13.26$
  Q  0.6645  3.62$  16.75$  11.75$
  Q  0.6645  4.4$  18.06$  11.77$
  Q  -1.3290  4.28$  17.23$  11.95$
  Q  0.6645  1.14$  17.44$  15.48$
  Q  0.6645  2.33$  16.39$  15.55$
  Q  -1.3290  1.76$  16.98$  15.85$
  Q  0.6645  3.52$  7.48$  5.7$
  Q  0.6645  3.13$  8.33$  6.89$
  Q  -1.3290  3.57$  7.76$  6.5$
  Q  0.6645  18.28$  5.64$  8.79$
  Q  0.6645  19.56$  6.48$  8.44$
  Q  -1.3290  19.08$  5.84$  8.77$
  Q  0.6645  9.23$  19.11$  5.58$
  Q  0.6645  10.25$  18.99$  6.87$
  Q  -1.3290  9.5$  18.96$  6.4$
  Q  0.6645  9.23$  10.29$  4.8$
  Q  0.6645  10.35$  9.62$  3.89$
  Q  -1.3290  9.61$  10.06$  4.04$
  Q  0.6645  15.76$  8.57$  17.53$
  Q  0.6645  15.79$  10.04$  17.58$
  Q  -1.3290  15.9$  9.27$  17.9$
  Q  0.6645  7.45$  7.86$  2.83$
  Q  0.6645  8.57$  8.84$  3.1$
  Q  -1.3290  8.25$  8.09$  2.82$
  Q  0.6645  8.43$  11.72$  2.86$
  Q  0.6645  7$  11.47$  3.47$
  Q  -1.3290  7.63$  11.91$  3.06$
  Q  0.6645  2.46$  9.55$  9.38$
  Q  0.6645  1.05$  9.54$  8.67$
  Q  -1.3290  1.91$  9.41$  8.75$
  Q  0.6645  14.79$  15.05$  3.89$
  Q  0.6645  15.73$  15.26$  5.03$
  Q  -1.3290  14.99$  15.27$  4.67$
  Q  0.6645  18.46$  14.01$  1.94$
  Q  0.6645  17.21$  13.48$  1.27$
  Q  -1.3290  17.69$  13.65$  1.93$
  Q  0.6645  7.31$  10.44$  0.04$
  Q  0.6645  6.96$  11.32$  1.22$
  Q  -1.3290  6.81$  10.96$  0.48$
  Q  0.6645  7.05$  8.21$  6.76$
  Q  0.6645  5.68$  7.99$  6.41$
  Q  -1.3290  6.45$  8.18$  6.23$
  Q  0.6645  13.67$  12.23$  4.81$
  Q  0.6645  14.07$  13.62$  5.35$
  Q  -1.3290  13.85$  12.81$  5.4$
  Q  0.6645  12.83$  17.8$  17.82$
  Q  0.6645  12.08$  18.08$  19.1$
  Q  -1.3290  12.74$  18.03$  18.63$
  Q  0.6645  12.79$  5.3$  3.6$
  Q  0.6645  11.58$  5.09$  4.41$
  Q  -1.3290  12.39$  5.25$  4.29$
  Q  0.6645  18.84$  11.42$  18.51$
  Q  0.6645  18.28$  11.74$  17.21$
  Q  -1.3290  18.69$  11.93$  17.87$
  Q  0.6645  4.5$  7.64$  18.23$
  Q  0.6645  5.63$  8.37$  17.41$
  Q  -1.3290  5.3$  7.98$  18.09$
  Q  0.6645  14.29$  6.22$  20.53$
  Q  0.6645  15.42$  5.4$  19.79$
  Q  -1.3290  14.7$  5.92$  19.87$
  Q  0.6645  16.44$  9.61$  12.87$
  Q  0.6645  17.81$  9.89$  12.26$
  Q  -1.3290  17.26$  9.86$  12.9$
  Q  0.6645  2.57$  11$  16.36$
  Q  0.6645  1.54$  10.55$  15.37$
  Q  -1.3290  2.33$  10.72$  15.6$
  Q  0.6645  9.69$  4.44$  16.42$
  Q  0.6645  8.92$  3.62$  15.4$
  Q  -1.3290  9.08$  4.31$  15.84$
  Q  0.6645  4.89$  9.93$  18.28$
  Q  0.6645  5.12$  10.41$  16.89$
  Q  -1.3290  4.76$  10.47$  17.63$
  Q  0.6645  18.57$  12.26$  14.8$
  Q  0.6645  17.48$  11.32$  14.36$
  Q  -1.3290  17.81$  11.93$  14.86$
  Q  0.6645  5.71$  6.63$  1.54$
  Q  0.6645  5.29$  8.17$  1.86$
  Q  -1.3290  5.62$  7.38$  2.02$
  Q  0.6645  13.75$  16.8$  5.28$
  Q  0.6645  13.59$  18.37$  5.47$
  Q  -1.3290  13.43$  17.52$  5.62$
  Q  0.6645  14.86$  14.96$  1.44$
  Q  0.6645  13.92$  13.8$  1.86$
  Q  -1.3290  14.21$  14.61$  1.85$
  Q  0.6645  12.9$  22.12$  7.38$
  Q  0.6645  12.04$  20.93$  7.94$
  Q  -1.3290  12.27$  21.75$  7.78$
  Q  0.6645  13.63$  11.96$  16.34$
  Q  0.6645  12.58$  11.47$  17.33$
  Q  -1.3290  12.88$  11.71$  16.58$
  Q  0.6645  14.28$  14.99$  10.94$
  Q  0.6645  14.58$  13.63$  10.28$
  Q  -1.3290  14.16$  14.35$  10.38$
  Q  0.6645  4.16$  3.68$  10.26$
  Q  0.6645  3.43$  2.92$  11.39$
  Q  -1.3290  4.03$  3.4$  11.04$
  Q  0.6645  2.93$  6.64$  8.16$
  Q  0.6645  2.02$  7.66$  8.69$
  Q  -1.3290  2.29$  6.9$  8.64$
  Q  0.6645  19.7$  11.6$  12.81$
  Q  0.6645  19.05$  12.68$  12.11$
  Q  -1.3290  19.54$  12.37$  12.67$
  Q  0.6645  21.43$  13.78$  7.47$
  Q  0.6645  22.23$  14.58$  6.36$
  Q  -1.3290  21.79$  13.91$  6.71$
  Q  0.6645  16.5$  17.18$  12.59$
  Q  0.6645  16.46$  18.39$  11.54$
  Q  -1.3290  16.81$  17.84$  12.1$
  Q  0.6645  15.56$  6.46$  0.41$
  Q  0.6645  14.66$  7.38$  1.33$
  Q  -1.3290  15.01$  7.09$  0.6$
  Q  0.6645  11.45$  19.42$  9.25$
  Q  0.6645  12.4$  18.33$  8.68$
  Q  -1.3290  11.73$  18.87$  8.65$
  Q  0.6645  7.37$  5.46$  16.15$
  Q  0.6645  6.42$  6.67$  16.02$
  Q  -1.3290  6.62$  5.85$  16.18$
  Q  0.6645  16.05$  2.35$  9.03$
  Q  0.6645  16.47$  3.73$  9.44$
  Q  -1.3290  16.56$  2.92$  9.43$
  Q  0.6645  10.98$  0.17$  16.35$
  Q  0.6645  11.54$  1.01$  15.19$
  Q  -1.3290  11.36$  0.82$  15.97$
  Q  0.6645  6.06$  9.51$  4.5$
  Q  0.6645  5.18$  9.91$  3.29$
  Q  -1.3290  5.68$  10.04$  3.97$
  Q  0.6645  9.41$  14.14$  20.42$
  Q  0.6645  10.45$  13.52$  19.53$
  Q  -1.3290  9.8$  13.51$  20.06$
  Q  0.6645  9.61$  22.41$  13.45$
  Q  0.6645  9.64$  20.92$  13.24$
  Q  -1.3290  9.68$  21.7$  13$
  Q  0.6645  14.57$  8.72$  13.78$
  Q  0.6645  14.82$  7.93$  12.45$
  Q  -1.3290  14.7$  8.64$  12.94$
  Q  0.6645  12.61$  9.39$  18.79$
  Q  0.6645  13.6$  8.12$  18.55$
  Q  -1.3290  12.85$  8.54$  18.72$
  Q  0.6645  14.69$  10.62$  3.03$
  Q  0.6645  13.26$  10.65$  2.25$
  Q  -1.3290  13.95$  10.97$  2.69$
  Q  0.6645  14.57$  2.23$  7.26$
  Q  0.6645  14.9$  0.76$  7.72$
  Q  -1.3290  14.68$  1.59$  7.82$
  Q  0.6645  15.62$  20.13$  7.65$
  Q  0.6645  14.64$  20.38$  6.54$
  Q  -1.3290  14.98$  20.54$  7.29$
  Q  0.6645  12.73$  2.2$  10.75$
  Q  0.6645  11.27$  2.52$  11.14$
  Q  -1.3290  12.1$  2.67$  11.14$
  Q  0.6645  17.62$  6.78$  17.03$
  Q  0.6645  17.63$  7.95$  18.1$
  Q  -1.3290  17.83$  7.18$  17.79$
  Q  0.6645  2.23$  12.31$  18.5$
  Q  0.6645  3.02$  11.09$  18.32$
  Q  -1.3290  2.33$  11.5$  18.47$
  Q  0.6645  14.35$  17.07$  7.82$
  Q  0.6645  13.75$  16.04$  8.78$
  Q  -1.3290  14.04$  16.82$  8.55$
  Q  0.6645  12.06$  17.43$  1.42$
  Q  0.6645  12.27$  15.94$  1.99$
  Q  -1.3290  11.88$  16.59$  1.59$
  Q  0.6645  21.57$  14.41$  14.27$
  Q  0.6645  20.35$  13.99$  13.3$
  Q  -1.3290  20.85$  14.53$  13.8$
  Q  0.6645  9.35$  19.98$  9.92$
  Q  0.6645  9.88$  20.87$  11.1$
  Q  -1.3290  9.94$  20.43$  10.34$
  Q  0.6645  2.45$  8.49$  11.47$
  Q  0.6645  2.3$  7.21$  10.64$
  Q  -1.3290  2.32$  7.64$  11.34$
  Q  0.6645  12.63$  16.29$  15.39$
  Q  0.6645  12.44$  15.7$  16.78$
  Q  -1.3290  12.72$  16.28$  16.23$
  Q  0.6645  18$  11.75$  8.56$
  Q  0.6645  18.76$  10.44$  8.26$
  Q  -1.3290  18.68$  11.26$  8.41$
  Q  0.6645  9.43$  6.61$  3.64$
  Q  0.6645  9.58$  6.24$  5.12$
  Q  -1.3290  9.62$  6.11$  4.28$
  Q  0.6645  12.37$  18.18$  15.37$
  Q  0.6645  11.51$  19.38$  16.05$
  Q  -1.3290  11.81$  18.86$  15.42$
  Q  0.6645  18.25$  11.58$  4.31$
  Q  0.6645  17.47$  12.53$  3.42$
  Q  -1.3290  17.59$  12.07$  4.12$
  Q  0.6645  16.22$  2.69$  12.31$
  Q  0.6645  15.93$  3.07$  13.67$
  Q  -1.3290  16.19$  3.25$  12.94$
  Q  0.6645  13.73$  8.3$  16.01$
  Q  0.6645  13.66$  9.82$  15.81$
  Q  -1.3290  13.91$  9.04$  15.6$
  Q  0.6645  16.76$  10.33$  3.78$
  Q  0.6645  16.92$  9.45$  2.55$
  Q  -1.3290  16.52$  9.7$  3.24$
  Q  0.6645  14.93$  19.42$  10.57$
  Q  0.6645  15.3$  18.39$  9.71$
  Q  -1.3290  15.49$  19.03$  10.13$
  Q  0.6645  11.54$  9.89$  0.9$
  Q  0.6645  12.23$  8.55$  1.01$
  Q  -1.3290  11.98$  9.3$  1.31$
  Q  0.6645  12.24$  2.54$  16.74$
  Q  0.6645  13.17$  3.68$  16.14$
  Q  -1.3290  12.78$  3.25$  16.75$
  Q  0.6645  18.03$  7.35$  3.9$
  Q  0.6645  18.38$  6.34$  4.98$
  Q  -1.3290  17.96$  6.96$  4.63$
  Q  0.6645  14.65$  6.94$  3.98$
  Q  0.6645  15.11$  8.28$  3.35$
  Q  -1.3290  14.66$  7.58$  3.4$
  Q  0.6645  13.15$  20.57$  11.87$
  Q  0.6645  13.27$  21$  10.62$
  Q  -1.3290  13.06$  20.4$  11.12$
  Q  0.6645  20.92$  6.34$  12.8$
  Q  0.6645  19.54$  6.59$  12.28$
  Q  -1.3290  20.19$  6.12$  12.48$
  Q  0.6645  9.43$  1.38$  11.39$
  Q  0.6645  8.99$  2.4$  10.24$
  Q  -1.3290  9.47$  2.1$  10.89$
  Q  0.6645  22.1$  9.42$  5.59$
  Q  0.6645  21.57$  7.94$  5.9$
  Q  -1.3290  21.74$  8.76$  6.05$
  Q  0.6645  15$  3.21$  5.25$
  Q  0.6645  13.58$  3.66$  5.57$
  Q  -1.3290  14.34$  3.35$  5.74$
  Q  0.6645  16.93$  18.68$  6.47$
  Q  0.6645  17.18$  18.09$  7.94$
  Q  -1.3290  17.13$  18.72$  7.33$
  Q  0.6645  12.3$  3.21$  21.17$
  Q  0.6645  12.28$  4.06$  19.82$
  Q  -1.3290  12.38$  3.34$  20.31$
  Q  0.6645  18.01$  14.74$  5.76$
  Q  0.6645  17.3$  13.41$  5.51$
  Q  -1.3290  17.4$  14.14$  5.9$
  Q  0.6645  7.37$  1.71$  14.98$
  Q  0.6645  7.48$  2.41$  13.56$
  Q  -1.3290  7.73$  1.93$  14.21$
  Q  0.6645  2.25$  14.22$  15.17$
  Q  0.6645  1.62$  12.9$  14.66$
  Q  -1.3290  1.63$  13.71$  14.92$
  Q  0.6645  15.01$  5.47$  5.62$
  Q  0.6645  16.33$  6.16$  5.1$
  Q  -1.3290  15.57$  5.77$  5.04$
  Q  0.6645  10.49$  3.83$  6.84$
  Q  0.6645  10.81$  5.39$  6.92$
  Q  -1.3290  10.97$  4.54$  7$
  Q  0.6645  17.21$  13.17$  10.37$
  Q  0.6645  16.53$  11.85$  10.63$
  Q  -1.3290  17.11$  12.43$  10.74$
  Q  0.6645  10.89$  5.72$  17.41$
  Q  0.6645  11.6$  4.39$  17.51$
  Q  -1.3290  10.97$  4.92$  17.68$
  Q  0.6645  4.41$  11.18$  4.69$
  Q  0.6645  3.73$  12.08$  5.67$
  Q  -1.3290  3.83$  11.7$  4.95$
  Q  0.6645  1.29$  13.96$  10.72$
  Q  0.6645  0.02$  13.48$  10.37$
  Q  -1.3290  0.76$  13.35$  10.59$
  Q  0.6645  5.36$  18.83$  14.66$
  Q  0.6645  6.77$  18.23$  14.21$
  Q  -1.3290  6.22$  18.85$  14.51$
  Q  0.6645  12.21$  11.71$  19.88$
  Q  0.6645  11.14$  10.68$  19.63$
  Q  -1.3290  11.87$  11.07$  19.48$
  Q  0.6645  15.1$  6.56$  18.01$
  Q  0.6645  14.72$  5.99$  16.69$
  Q  -1.3290  14.97$  6.61$  17.19$
  Q  0.6645  17.54$  7.93$  10.53$
  Q  0.6645  18.61$  6.96$  10.22$
  Q  -1.3290  18.21$  7.48$  10.72$
  Q  0.6645  10.56$  11.61$  3.57$
  Q  0.6645  10.96$  13.04$  3.91$
  Q  -1.3290  10.85$  12.37$  3.41$
  Q  0.6645  2.03$  16.32$  10$
  Q  0.6645  1.46$  15.95$  11.41$
  Q  -1.3290  2.01$  15.92$  10.75$
  Q  0.6645  9.41$  5.37$  10.67$
  Q  0.6645  8.12$  4.95$  11.45$
  Q  -1.3290  8.68$  5.49$  11.07$
  Q  0.6645  3.49$  10.92$  10.56$
  Q  0.6645  2.36$  10.71$  11.54$
  Q  -1.3290  2.94$  10.46$  10.98$
  Q  0.6645  4.81$  5.63$  13.76$
  Q  0.6645  5.56$  5.02$  14.95$
  Q  -1.3290  4.98$  5.01$  14.34$
  Q  0.6645  6.15$  16.86$  11.06$
  Q  0.6645  7.67$  16.49$  10.78$
  Q  -1.3290  7.02$  16.99$  11.04$
  Q  0.6645  8.97$  17.13$  3.46$
  Q  0.6645  10.16$  16.63$  2.69$
  Q  -1.3290  9.46$  16.55$  3.13$
  Q  0.6645  4.45$  15.46$  14.84$
  Q  0.6645  3.96$  16.29$  13.77$
  Q  -1.3290  3.82$  15.76$  14.34$
  Q  0.6645  19.02$  4.32$  6.72$
  Q  0.6645  19.91$  4.82$  5.68$
  Q  -1.3290  19.17$  4.59$  5.96$
  Q  0.6645  6.79$  3.08$  8.8$
  Q  0.6645  6.4$  1.79$  9.59$
  Q  -1.3290  6.75$  2.59$  9.51$
  Q  0.6645  14.98$  1.8$  16.3$
  Q  0.6645  14.44$  1.56$  14.77$
  Q  -1.3290  14.96$  1.84$  15.42$
  Q  0.6645  9.21$  10.04$  19.12$
  Q  0.6645  9.42$  11.45$  19.77$
  Q  -1.3290  9.43$  10.59$  19.72$
*
