! NoMOPrint PrintBasis #MINIPRINT SMALLPRINT LARGEPRINT
! ALLPOP XYZFILE
#! BP86 3-21G   TightSCF
! ENGRAD
! B3LYP NormalPNO PModel #DecontractAux
#! VerySlowConv 
 %maxcore 5000
 %scf  maxiter   500  end 

%pal
    nprocs 32
end

%basis
    NewGTO O    # New basis for oxygen
        "aug-cc-pVTZ"
    end
    NewGTO C    # New basis for carbon
        "aug-cc-pVTZ"
    end
    NewGTO H    # New basis for hydrogen
        "cc-pVTZ"
    end
end

* xyz 0   1
  C  10.38  10.47  12.25  #1
  H  9.52  9.96  12.8  #2
  H  9.79  11.24  11.74  #3
  C  11.01  9.72  11.12  #4
  H  11.74  9.05  11.54  #5
  H  10.22  9.15  10.67  #6
  C  11.64  10.71  10.01  #7
  H  12.24  10.15  9.29  #8
  H  12.12  11.55  10.49  #9
  C  10.52  11.29  9.15  #10
  H  9.78  11.89  9.77  #11
  H  9.99  10.48  8.61  #12
  O  11.03  12.02  8.07  #13
  H  11.61  12.71  8.37  #14
  O  11.32  11.11  13.14  #15
  H  11.72  10.41  13.7  #16
  O  12.92  12.34  5.31  #17
  H  13.4  12.64  6.09  #18
  H  11.99  12.11  5.52  #19
  O  9.32  12.52  14.76  #20
  H  9.98  11.95  14.34  #21
  H  8.59  12.52  14.17  #22
  O  13.33  6.54  7.59  #23
  H  14.03  7.13  7.32  #24
  H  13.86  5.72  7.77  #25
  O  13.86  6.79  10.82  #26
  H  14.18  6.13  10.17  #27
  H  14.14  7.64  10.49  #28
  O  12.64  12.51  16.85  #29
  H  12.31  13.39  16.54  #30
  H  12.44  11.84  16.22  #31
  O  14.98  11.72  11.66  #32
  H  14.11  12.14  11.75  #33
  H  14.72  10.89  11.22  #34
  O  8.32  8.96  7.52  #35
  H  8.03  8.62  6.65  #36
  H  9.1  8.44  7.8  #37
  O  12.81  13.31  12.22  #38
  H  12.07  12.77  12.62  #39
  H  13.39  13.58  12.91  #40
  O  12.21  15.11  15.65  #41
  H  11.43  15.09  15.11  #42
  H  12.97  15.06  15.05  #43
  O  13.12  4.04  12.49  #44
  H  13.89  3.97  13.03  #45
  H  13.16  4.89  12.1  #46
  O  6.97  12.84  13.46  #47
  H  6.63  12.61  12.59  #48
  H  6.47  12.25  14.03  #49
  O  10.09  14.89  12.98  #50
  H  9.52  14.1  13.25  #51
  H  9.62  15.68  13.27  #52
  O  11.81  8.97  5.83  #53
  H  12.31  8.65  5.04  #54
  H  11.32  9.78  5.54  #55
  O  17.04  13.85  11.24  #56
  H  17.86  13.39  11.58  #57
  H  16.25  13.37  11.44  #58
  O  15.11  5.01  9.1  #59
  H  15.99  4.84  8.64  #60
  H  14.74  4.13  9.43  #61
  O  10.74  10.28  17.11  #62
  H  11.12  10  17.97  #63
  H  10.58  11.2  17.38  #64
  O  11.35  6.36  11.27  #65
  H  11.14  6.31  12.2  #66
  H  12.3  6.65  11.22  #67
  O  13.82  11.33  2.9  #68
  H  14.75  11.63  2.81  #69
  H  13.58  11.68  3.76  #70
  O  6.37  10.6  8.09  #71
  H  7.13  9.97  8.04  #72
  H  6.66  11.34  7.52  #73
  O  14.04  9.62  7.25  #74
  H  13.22  9.24  6.89  #75
  H  14.73  9.59  6.52  #76
  O  9.74  13.59  6.14  #77
  H  10.46  14.11  5.73  #78
  H  10.18  13.22  6.9  #79
  O  14.81  12.47  18.95  #80
  H  14.95  13.14  19.69  #81
  H  14.01  12.81  18.49  #82
  O  7.17  8.23  11.58  #83
  H  7.06  8.49  12.52  #84
  H  6.74  8.97  11.09  #85
  O  16.55  5.5  11.48  #86
  H  16.9  6.35  11.74  #87
  H  16.05  5.66  10.66  #88
  O  9.09  12.52  17.58  #89
  H  9.21  12.7  16.64  #90
  H  9.6  13.13  18.11  #91
  O  14.56  12.26  7.61  #92
  H  15.49  12.39  7.45  #93
  H  14.42  11.37  7.43  #94
  O  10.83  7.26  8.46  #95
  H  11.72  7.1  8.2  #96
  H  10.68  6.94  9.4  #97
  O  15.58  10.52  14.21  #98
  H  15.23  11.11  13.51  #99
  H  15.25  10.65  15.1  #100
  O  14.8  9.38  9.97  #101
  H  14.36  9.54  9.1  #102
  H  15.72  9.43  9.71  #103
  O  12.56  9.31  14.97  #104
  H  12.15  9.14  15.83  #105
  H  13.23  8.65  14.95  #106
  O  14.02  14.86  8.85  #107
  H  14.38  15.16  9.73  #108
  H  14.22  13.96  8.86  #109
  O  12.77  15.28  18.49  #110
  H  12.5  15.26  17.49  #111
  H  13.7  15.42  18.54  #112
  Q  0.6645  19.66$  7.39$  7.47$
  Q  0.6645  20.97$  7.8$  6.76$
  Q  -1.3290  20.38$  7.85$  7.34$
  Q  0.6645  7$  15.6$  15.97$
  Q  0.6645  6.88$  17.16$  16.35$
  Q  -1.3290  7.24$  16.4$  16.06$
  Q  0.6645  9.39$  21.07$  6.27$
  Q  0.6645  8.91$  22.27$  7.03$
  Q  -1.3290  8.85$  21.69$  6.45$
  Q  0.6645  16.9$  4.34$  15.27$
  Q  0.6645  17.48$  2.9$  15.12$
  Q  -1.3290  17.25$  3.61$  15.54$
  Q  0.6645  5.1$  6.88$  7.04$
  Q  0.6645  5.75$  8.25$  7.39$
  Q  -1.3290  5.37$  7.51$  7.54$
  Q  0.6645  17.14$  17.26$  10.38$
  Q  0.6645  15.84$  17.47$  9.29$
  Q  -1.3290  16.41$  17.61$  10.03$
  Q  0.6645  5.19$  10.38$  14.23$
  Q  0.6645  5.99$  9.45$  15.12$
  Q  -1.3290  5.69$  10.2$  14.86$
  Q  0.6645  15.52$  16.84$  18.95$
  Q  0.6645  15.78$  16.39$  17.54$
  Q  -1.3290  15.65$  16.28$  18.34$
  Q  0.6645  7.22$  21.69$  10.74$
  Q  0.6645  7.51$  20.35$  10.21$
  Q  -1.3290  7.11$  21.07$  10.21$
  Q  0.6645  2.96$  15.11$  12.23$
  Q  0.6645  3.29$  14.62$  13.63$
  Q  -1.3290  2.77$  14.81$  13$
  Q  0.6645  1.28$  11.15$  14.58$
  Q  0.6645  0.69$  10.98$  13.07$
  Q  -1.3290  0.68$  10.97$  13.95$
  Q  0.6645  17.6$  7.77$  6.16$
  Q  0.6645  17.37$  8.46$  7.51$
  Q  -1.3290  17.39$  7.8$  6.96$
  Q  0.6645  9.38$  11.11$  5.52$
  Q  0.6645  9.19$  10.04$  4.57$
  Q  -1.3290  9.63$  10.62$  4.93$
  Q  0.6645  13.84$  11.34$  20.12$
  Q  0.6645  12.93$  11.29$  21.31$
  Q  -1.3290  13.45$  10.94$  20.77$
  Q  0.6645  5.17$  16.79$  14.35$
  Q  0.6645  5.38$  18.14$  13.81$
  Q  -1.3290  5.29$  17.34$  13.74$
  Q  0.6645  9.66$  3.41$  10.37$
  Q  0.6645  8.44$  4.15$  9.9$
  Q  -1.3290  8.86$  3.48$  10.16$
  Q  0.6645  17.65$  12.76$  6.19$
  Q  0.6645  17.69$  13.6$  7.48$
  Q  -1.3290  17.54$  12.92$  7$
  Q  0.6645  9.76$  7.14$  1.5$
  Q  0.6645  9.26$  5.74$  1.18$
  Q  -1.3290  9.62$  6.48$  0.99$
  Q  0.6645  19.49$  5.15$  9.16$
  Q  0.6645  20.19$  5.77$  10.35$
  Q  -1.3290  20.14$  5.4$  9.64$
  Q  0.6645  17.4$  6.79$  4.26$
  Q  0.6645  18.07$  7.78$  3.44$
  Q  -1.3290  17.67$  7.54$  4.12$
  Q  0.6645  9.2$  12.6$  0.95$
  Q  0.6645  9.49$  11.58$  -0.01$
  Q  -1.3290  9.21$  12.33$  0.2$
  Q  0.6645  20.05$  9.98$  7.36$
  Q  0.6645  19.88$  11.35$  7.72$
  Q  -1.3290  19.83$  10.73$  7.22$
  Q  0.6645  9.79$  15.61$  3.99$
  Q  0.6645  8.2$  15.43$  3.87$
  Q  -1.3290  9.05$  15.37$  3.64$
  Q  0.6645  1.2$  7.83$  10.44$
  Q  0.6645  2.72$  7.37$  10.29$
  Q  -1.3290  1.88$  7.28$  10.32$
  Q  0.6645  18.16$  8.08$  13.64$
  Q  0.6645  18.52$  7.06$  12.69$
  Q  -1.3290  18.03$  7.64$  12.97$
  Q  0.6645  7.79$  4.89$  12.39$
  Q  0.6645  7.41$  6.34$  12.41$
  Q  -1.3290  7.38$  5.53$  12.14$
  Q  0.6645  1.63$  10.75$  6.91$
  Q  0.6645  1.02$  12.06$  7.5$
  Q  -1.3290  1.44$  11.32$  7.52$
  Q  0.6645  12.89$  15.97$  8.03$
  Q  0.6645  11.47$  16.68$  7.93$
  Q  -1.3290  12.28$  16.42$  7.67$
  Q  0.6645  8.42$  15.38$  1.6$
  Q  0.6645  8.79$  15.97$  0.24$
  Q  -1.3290  8.29$  15.56$  0.79$
  Q  0.6645  16.83$  21.44$  8.48$
  Q  0.6645  15.49$  20.66$  8.36$
  Q  -1.3290  16.05$  21.27$  8.17$
  Q  0.6645  18.34$  9.19$  16.55$
  Q  0.6645  18.49$  8.8$  18.1$
  Q  -1.3290  18.45$  8.67$  17.22$
  Q  0.6645  1.7$  14.16$  7.04$
  Q  0.6645  1.09$  14.71$  8.32$
  Q  -1.3290  1.13$  14.22$  7.64$
  Q  0.6645  17.25$  17.05$  15.63$
  Q  0.6645  16.15$  17.92$  15.15$
  Q  -1.3290  16.95$  17.79$  15.37$
  Q  0.6645  20.7$  5.37$  12.61$
  Q  0.6645  20.06$  6.13$  13.72$
  Q  -1.3290  20.22$  5.96$  12.9$
  Q  0.6645  2.08$  8.81$  5.97$
  Q  0.6645  1.02$  9.42$  4.99$
  Q  -1.3290  1.78$  9.34$  5.38$
  Q  0.6645  7.47$  6.08$  10.16$
  Q  0.6645  6.55$  6.65$  9.01$
  Q  -1.3290  7.2$  6.18$  9.37$
  Q  0.6645  10.4$  17.76$  18.75$
  Q  0.6645  11.3$  18.65$  17.96$
  Q  -1.3290  11.01$  18.31$  18.67$
  Q  0.6645  1.89$  7.79$  8.32$
  Q  0.6645  3.41$  7.91$  7.62$
  Q  -1.3290  2.53$  8.01$  7.72$
  Q  0.6645  12.33$  19.74$  8.96$
  Q  0.6645  12.27$  20.47$  7.58$
  Q  -1.3290  12.52$  20.36$  8.42$
  Q  0.6645  4.81$  10.72$  16.47$
  Q  0.6645  5.25$  11.46$  17.75$
  Q  -1.3290  4.71$  11.1$  17.24$
  Q  0.6645  17.68$  12.55$  17.13$
  Q  0.6645  16.27$  12.58$  17.76$
  Q  -1.3290  16.84$  12.48$  17.11$
  Q  0.6645  10.13$  3.05$  7.33$
  Q  0.6645  10.87$  1.74$  6.99$
  Q  -1.3290  10.33$  2.23$  7.38$
  Q  0.6645  4.45$  9.62$  10.27$
  Q  0.6645  5.48$  10.67$  9.76$
  Q  -1.3290  5.06$  10.22$  10.37$
  Q  0.6645  3.36$  4.22$  9.54$
  Q  0.6645  2.14$  4.38$  8.72$
  Q  -1.3290  2.91$  4.06$  8.88$
  Q  0.6645  18.87$  10.99$  14.84$
  Q  0.6645  17.49$  10.43$  14.22$
  Q  -1.3290  18.25$  10.39$  14.63$
  Q  0.6645  19.61$  16.98$  10.09$
  Q  0.6645  19.18$  17.81$  8.78$
  Q  -1.3290  19.09$  17.21$  9.41$
  Q  0.6645  17.81$  3.87$  11.68$
  Q  0.6645  18.01$  2.65$  12.57$
  Q  -1.3290  18.27$  3.26$  12.06$
  Q  0.6645  16.46$  11.19$  1.05$
  Q  0.6645  16.01$  12.56$  0.96$
  Q  -1.3290  16.31$  11.91$  1.37$
  Q  0.6645  19.13$  9.3$  12.02$
  Q  0.6645  20.47$  9.56$  11.27$
  Q  -1.3290  19.63$  9.67$  11.44$
  Q  0.6645  0.7$  10.66$  10.56$
  Q  0.6645  1.53$  11.94$  10.75$
  Q  -1.3290  0.99$  11.34$  10.98$
  Q  0.6645  13.07$  4.93$  2.66$
  Q  0.6645  14.42$  4.65$  1.96$
  Q  -1.3290  13.58$  4.79$  2.02$
  Q  0.6645  11.47$  1.97$  11.49$
  Q  0.6645  11.68$  2.85$  12.65$
  Q  -1.3290  11.34$  2.2$  12.27$
  Q  0.6645  3.05$  9.59$  13.27$
  Q  0.6645  2.47$  8.15$  13.02$
  Q  -1.3290  3.02$  8.71$  13.29$
  Q  0.6645  7.51$  3.93$  16.29$
  Q  0.6645  6.5$  2.96$  15.61$
  Q  -1.3290  6.97$  3.68$  15.71$
  Q  0.6645  20.05$  13.49$  8.97$
  Q  0.6645  20.61$  12.44$  9.96$
  Q  -1.3290  20.21$  12.69$  9.24$
  Q  0.6645  18.56$  11.14$  5.64$
  Q  0.6645  17.3$  10.76$  4.81$
  Q  -1.3290  18.09$  11.04$  4.93$
  Q  0.6645  12.78$  1.77$  16.81$
  Q  0.6645  11.71$  2.91$  17.19$
  Q  -1.3290  12.01$  2.1$  17.07$
  Q  0.6645  4.61$  5.69$  14.44$
  Q  0.6645  5.79$  5.19$  15.37$
  Q  -1.3290  5.18$  5.73$  15.1$
  Q  0.6645  6.75$  7.19$  14.99$
  Q  0.6645  7.96$  8.08$  15.11$
  Q  -1.3290  7.25$  7.8$  14.77$
  Q  0.6645  5.6$  12.95$  4.13$
  Q  0.6645  6.26$  13.72$  2.92$
  Q  -1.3290  6.08$  13.54$  3.74$
  Q  0.6645  7.57$  13.23$  16.99$
  Q  0.6645  6.38$  13.85$  17.67$
  Q  -1.3290  6.89$  13.7$  17.03$
  Q  0.6645  7.66$  9.32$  0.23$
  Q  0.6645  8.69$  9.29$  1.4$
  Q  -1.3290  7.9$  9.28$  1.06$
  Q  0.6645  4.01$  4.77$  7.27$
  Q  0.6645  5.26$  4.62$  6.43$
  Q  -1.3290  4.51$  4.92$  6.59$
  Q  0.6645  7.31$  3.35$  5.75$
  Q  0.6645  6.91$  3.18$  7.18$
  Q  -1.3290  6.93$  3.55$  6.43$
  Q  0.6645  9.33$  2.8$  13.43$
  Q  0.6645  8.12$  3.45$  14.33$
  Q  -1.3290  8.8$  3.41$  13.75$
  Q  0.6645  11.71$  18.7$  15.01$
  Q  0.6645  11.96$  17.32$  15.64$
  Q  -1.3290  11.89$  18.16$  15.62$
  Q  0.6645  12.2$  16.79$  19.98$
  Q  0.6645  12.59$  15.92$  21.34$
  Q  -1.3290  12.27$  16.6$  20.83$
  Q  0.6645  18.15$  15.61$  8.97$
  Q  0.6645  17.51$  14.36$  9.75$
  Q  -1.3290  17.69$  14.88$  9.05$
  Q  0.6645  18.27$  9.91$  9.39$
  Q  0.6645  17.49$  10.92$  8.58$
  Q  -1.3290  17.67$  10.15$  8.84$
  Q  0.6645  9.74$  20.62$  10.31$
  Q  0.6645  9.51$  19.51$  11.42$
  Q  -1.3290  9.44$  19.85$  10.65$
  Q  0.6645  8.63$  5.98$  18.55$
  Q  0.6645  7.2$  6.39$  18.64$
  Q  -1.3290  8.03$  6.53$  18.61$
  Q  0.6645  4.32$  11.13$  12.06$
  Q  0.6645  3.31$  12.2$  12.54$
  Q  -1.3290  3.82$  11.52$  12.63$
  Q  0.6645  9.89$  12.16$  3.14$
  Q  0.6645  9.68$  13.72$  2.98$
  Q  -1.3290  9.83$  12.92$  2.73$
  Q  0.6645  12.69$  11.64$  1.63$
  Q  0.6645  11.37$  12.28$  1.48$
  Q  -1.3290  12.11$  12.01$  1.19$
  Q  0.6645  14.62$  19.82$  12.39$
  Q  0.6645  15.86$  19.15$  12.85$
  Q  -1.3290  15.1$  19.45$  12.98$
  Q  0.6645  18.44$  16.53$  5.79$
  Q  0.6645  19.2$  15.21$  5.49$
  Q  -1.3290  19.05$  15.97$  5.9$
  Q  0.6645  8.68$  5.34$  7.5$
  Q  0.6645  10$  5.89$  7.88$
  Q  -1.3290  9.51$  5.33$  7.52$
  Q  0.6645  15.56$  7.41$  18.65$
  Q  0.6645  16.64$  6.41$  18.17$
  Q  -1.3290  15.88$  6.66$  18.41$
  Q  0.6645  4.09$  8.54$  2.57$
  Q  0.6645  3.09$  8.49$  3.69$
  Q  -1.3290  3.53$  8.88$  3.09$
  Q  0.6645  7.4$  9.83$  19.69$
  Q  0.6645  7.59$  8.32$  19.8$
  Q  -1.3290  7.67$  9.13$  20.05$
  Q  0.6645  12.77$  4.98$  16.36$
  Q  0.6645  11.55$  5.13$  15.41$
  Q  -1.3290  12.01$  4.79$  16.05$
  Q  0.6645  5.51$  19.96$  10.13$
  Q  0.6645  5.47$  18.51$  10.63$
  Q  -1.3290  5.14$  19.26$  10.38$
  Q  0.6645  9.06$  4.04$  18.28$
  Q  0.6645  8.04$  3.6$  19.3$
  Q  -1.3290  8.3$  3.72$  18.51$
  Q  0.6645  11.31$  14.92$  11.11$
  Q  0.6645  12.27$  15.32$  9.98$
  Q  -1.3290  11.56$  15.32$  10.4$
  Q  0.6645  13.28$  8.12$  2.85$
  Q  0.6645  13.45$  9.52$  3.08$
  Q  -1.3290  13.14$  8.79$  3.29$
  Q  0.6645  6.68$  10.3$  4.14$
  Q  0.6645  7.28$  9.63$  2.92$
  Q  -1.3290  7.19$  9.79$  3.74$
  Q  0.6645  10.14$  20.13$  13.47$
  Q  0.6645  9.71$  18.56$  13.41$
  Q  -1.3290  10.23$  19.26$  13.33$
  Q  0.6645  9.02$  16.28$  17.28$
  Q  0.6645  9.74$  15.35$  18.3$
  Q  -1.3290  9.62$  16.03$  17.84$
  Q  0.6645  4.42$  7.3$  12.28$
  Q  0.6645  5.35$  7.47$  11.14$
  Q  -1.3290  4.67$  7.2$  11.5$
  Q  0.6645  12.51$  5.45$  21.98$
  Q  0.6645  11.18$  6.03$  21.43$
  Q  -1.3290  12$  5.86$  21.43$
  Q  0.6645  14.12$  20.08$  15.31$
  Q  0.6645  13.27$  19.27$  16.3$
  Q  -1.3290  13.93$  19.73$  16.06$
  Q  0.6645  16.47$  12.62$  15$
  Q  0.6645  17.25$  13.09$  13.72$
  Q  -1.3290  16.66$  13.13$  14.33$
  Q  0.6645  9.1$  15.29$  10.86$
  Q  0.6645  8.8$  16.04$  9.55$
  Q  -1.3290  8.65$  15.55$  10.23$
  Q  0.6645  10.23$  6.81$  14.59$
  Q  0.6645  9.71$  5.4$  14.26$
  Q  -1.3290  10.21$  6.07$  14.18$
  Q  0.6645  6.82$  13.52$  10.21$
  Q  0.6645  6.77$  12.08$  9.99$
  Q  -1.3290  6.85$  12.74$  10.43$
  Q  0.6645  5.47$  3.45$  10.48$
  Q  0.6645  5.44$  4.91$  10.93$
  Q  -1.3290  5.1$  4.14$  10.83$
  Q  0.6645  20.51$  15.86$  14.25$
  Q  0.6645  19.21$  15.75$  13.31$
  Q  -1.3290  19.84$  15.49$  13.86$
  Q  0.6645  15.16$  5.86$  14.25$
  Q  0.6645  15.76$  5.16$  13.06$
  Q  -1.3290  15.47$  5.18$  13.83$
  Q  0.6645  12.83$  13.69$  1$
  Q  0.6645  13.07$  15.13$  1.52$
  Q  -1.3290  13.09$  14.51$  0.95$
  Q  0.6645  11.75$  3.42$  8.97$
  Q  0.6645  11.7$  4.6$  9.92$
  Q  -1.3290  11.67$  3.78$  9.71$
  Q  0.6645  16.27$  14.15$  21.3$
  Q  0.6645  14.75$  14.09$  21.75$
  Q  -1.3290  15.47$  13.83$  21.35$
  Q  0.6645  15.01$  16.46$  11.31$
  Q  0.6645  13.6$  16.58$  11.35$
  Q  -1.3290  14.28$  16.15$  11.4$
  Q  0.6645  13.15$  9.13$  19.41$
  Q  0.6645  12.36$  7.73$  19.33$
  Q  -1.3290  12.48$  8.58$  19.28$
  Q  0.6645  8.41$  19.71$  3.8$
  Q  0.6645  8.59$  18.8$  5.09$
  Q  -1.3290  8.85$  19.27$  4.43$
  Q  0.6645  7.89$  13.5$  6.59$
  Q  0.6645  6.52$  13.29$  5.92$
  Q  -1.3290  7.12$  13.18$  6.5$
  Q  0.6645  16.59$  17.74$  5.73$
  Q  0.6645  16.36$  17.53$  4.18$
  Q  -1.3290  16.82$  17.7$  4.9$
  Q  0.6645  15.83$  10.11$  18.93$
  Q  0.6645  15.56$  9.52$  20.13$
  Q  -1.3290  15.57$  9.52$  19.34$
  Q  0.6645  12.84$  18.72$  5.34$
  Q  0.6645  14.3$  18.81$  4.78$
  Q  -1.3290  13.6$  18.41$  5.07$
  Q  0.6645  17.92$  12.8$  4.16$
  Q  0.6645  17.96$  14.32$  3.69$
  Q  -1.3290  17.73$  13.63$  4.18$
  Q  0.6645  10.61$  7.65$  5.58$
  Q  0.6645  10.08$  6.37$  6.23$
  Q  -1.3290  10.23$  6.9$  5.58$
  Q  0.6645  1.98$  7.62$  16.49$
  Q  0.6645  2.68$  7.37$  15.06$
  Q  -1.3290  2.18$  7.23$  15.74$
  Q  0.6645  5.94$  4.3$  3.99$
  Q  0.6645  6.52$  5.49$  4.63$
  Q  -1.3290  6.32$  5.04$  3.96$
  Q  0.6645  17.29$  14.56$  15.7$
  Q  0.6645  18.5$  15.27$  15.21$
  Q  -1.3290  17.73$  15.24$  15.53$
  Q  0.6645  2.71$  14.39$  4.15$
  Q  0.6645  3.23$  13.75$  5.55$
  Q  -1.3290  2.69$  13.87$  4.9$
  Q  0.6645  11.39$  8.84$  2.23$
  Q  0.6645  10.84$  9.63$  1.01$
  Q  -1.3290  10.79$  9.17$  1.7$
  Q  0.6645  11.7$  16.21$  5.65$
  Q  0.6645  11.75$  15.9$  4.15$
  Q  -1.3290  11.38$  15.98$  4.89$
  Q  0.6645  8.87$  7.68$  17.23$
  Q  0.6645  9.66$  8.89$  16.74$
  Q  -1.3290  9.31$  8.13$  16.66$
  Q  0.6645  3.77$  15.73$  15.77$
  Q  0.6645  4.92$  14.59$  15.92$
  Q  -1.3290  4.39$  15.13$  15.52$
  Q  0.6645  15.39$  7.89$  16.09$
  Q  0.6645  15.42$  8.4$  14.67$
  Q  -1.3290  15.26$  7.82$  15.26$
  Q  0.6645  5.99$  15.49$  4.57$
  Q  0.6645  5.43$  16.8$  4.95$
  Q  -1.3290  6.02$  16.23$  4.87$
  Q  0.6645  11.18$  0.06$  9.23$
  Q  0.6645  9.97$  0.8$  9.08$
  Q  -1.3290  10.57$  0.45$  9.52$
  Q  0.6645  14.5$  5.35$  18.56$
  Q  0.6645  13.55$  4.3$  19.1$
  Q  -1.3290  13.83$  4.83$  18.54$
  Q  0.6645  4.48$  7.47$  17.86$
  Q  0.6645  5.08$  6.47$  16.76$
  Q  -1.3290  4.96$  6.84$  17.53$
  Q  0.6645  7.96$  16.91$  14.37$
  Q  0.6645  7.84$  16.98$  12.81$
  Q  -1.3290  8.25$  17.06$  13.55$
  Q  0.6645  19.12$  5.78$  15.2$
  Q  0.6645  19.15$  6.92$  16.08$
  Q  -1.3290  19.45$  6.47$  15.46$
  Q  0.6645  7.96$  2.15$  9.08$
  Q  0.6645  7.28$  0.76$  8.71$
  Q  -1.3290  7.45$  1.62$  8.67$
  Q  0.6645  15.44$  16.32$  7.32$
  Q  0.6645  14.76$  17.59$  6.81$
  Q  -1.3290  15.34$  17.14$  7.2$
  Q  0.6645  10.28$  19.37$  1.53$
  Q  0.6645  9.82$  18.64$  2.76$
  Q  -1.3290  10.14$  18.71$  1.99$
  Q  0.6645  14.59$  3.36$  17.15$
  Q  0.6645  15.66$  2.82$  16.15$
  Q  -1.3290  14.95$  2.76$  16.64$
  Q  0.6645  10.17$  13.12$  20.21$
  Q  0.6645  11.36$  13.8$  19.4$
  Q  -1.3290  10.56$  13.61$  19.59$
  Q  0.6645  13.8$  1.92$  8.56$
  Q  0.6645  14.77$  1.05$  7.72$
  Q  -1.3290  14.21$  1.68$  7.83$
  Q  0.6645  3.2$  12.17$  16.02$
  Q  0.6645  3.13$  13.5$  15.45$
  Q  -1.3290  2.84$  12.77$  15.57$
  Q  0.6645  5.98$  16.68$  11.76$
  Q  0.6645  6.92$  16.3$  10.62$
  Q  -1.3290  6.37$  16.76$  11.01$
  Q  0.6645  11.05$  9.71$  20.58$
  Q  0.6645  9.54$  9.85$  20.5$
  Q  -1.3290  10.29$  10.02$  20.81$
  Q  0.6645  13.62$  9.1$  0.05$
  Q  0.6645  13.04$  7.66$  0.1$
  Q  -1.3290  13.47$  8.33$  0.4$
  Q  0.6645  16.7$  16.15$  13.57$
  Q  0.6645  16.98$  15.31$  12.37$
  Q  -1.3290  16.92$  16.01$  12.78$
  Q  0.6645  7.52$  7.97$  4.68$
  Q  0.6645  8.41$  6.96$  5.24$
  Q  -1.3290  7.66$  7.28$  5.11$
  Q  0.6645  11.69$  17.42$  10.26$
  Q  0.6645  11.96$  18.64$  11.13$
  Q  -1.3290  12.12$  18.12$  10.51$
  Q  0.6645  14.98$  9.88$  4.45$
  Q  0.6645  16.24$  9.01$  4.7$
  Q  -1.3290  15.65$  9.61$  4.87$
  Q  0.6645  4.57$  15.97$  10.37$
  Q  0.6645  3.18$  16.67$  10.62$
  Q  -1.3290  3.71$  15.99$  10.51$
  Q  0.6645  15.35$  16.28$  2.61$
  Q  0.6645  15.09$  17.63$  1.91$
  Q  -1.3290  15.52$  17.11$  2.39$
  Q  0.6645  13.94$  19.87$  10.12$
  Q  0.6645  15.34$  19.3$  10.34$
  Q  -1.3290  14.74$  19.87$  10.44$
  Q  0.6645  11.94$  17.39$  2.3$
  Q  0.6645  12.97$  17.42$  3.31$
  Q  -1.3290  12.56$  17.04$  2.71$
  Q  0.6645  14.51$  15.33$  13.12$
  Q  0.6645  15.11$  14.31$  14.03$
  Q  -1.3290  14.58$  14.9$  13.82$
  Q  0.6645  7.6$  4.15$  1$
  Q  0.6645  7.58$  4.68$  2.39$
  Q  -1.3290  7.95$  4.35$  1.72$
  Q  0.6645  18.2$  4.14$  7.46$
  Q  0.6645  17.63$  5.59$  7.35$
  Q  -1.3290  17.92$  4.87$  7.75$
  Q  0.6645  15.12$  2.15$  10.88$
  Q  0.6645  13.67$  2.57$  11$
  Q  -1.3290  14.37$  2.39$  10.58$
  Q  0.6645  10$  0.94$  13.08$
  Q  0.6645  9.8$  0.36$  14.46$
  Q  -1.3290  9.58$  0.5$  13.65$
  Q  0.6645  7.59$  2.14$  11.52$
  Q  0.6645  8.03$  1.14$  12.66$
  Q  -1.3290  7.55$  1.42$  12.01$
  Q  0.6645  19.99$  12.83$  15.82$
  Q  0.6645  21.05$  12.15$  14.81$
  Q  -1.3290  20.28$  12.35$  15.16$
  Q  0.6645  3.14$  13.98$  9.74$
  Q  0.6645  2.12$  12.99$  9.02$
  Q  -1.3290  2.81$  13.21$  9.5$
  Q  0.6645  16.47$  4.44$  5.35$
  Q  0.6645  16.93$  4.21$  3.98$
  Q  -1.3290  17.03$  4.48$  4.78$
  Q  0.6645  9.58$  18.38$  9.17$
  Q  0.6645  9.18$  17.73$  7.92$
  Q  -1.3290  9.56$  17.73$  8.67$
  Q  0.6645  11.86$  5.79$  4.9$
  Q  0.6645  12.13$  4.34$  4.29$
  Q  -1.3290  12.34$  5.14$  4.56$
  Q  0.6645  11.38$  4.64$  19.13$
  Q  0.6645  10.88$  4.84$  17.7$
  Q  -1.3290  10.78$  4.75$  18.52$
  Q  0.6645  19.18$  11.64$  12.11$
  Q  0.6645  19.45$  12.49$  13.32$
  Q  -1.3290  19.09$  12.36$  12.56$
  Q  0.6645  7.25$  18.53$  6.81$
  Q  0.6645  7.49$  17.05$  6.21$
  Q  -1.3290  7.69$  17.83$  6.57$
  Q  0.6645  3.76$  13.16$  7.95$
  Q  0.6645  4.55$  14.3$  7.18$
  Q  -1.3290  4.06$  13.62$  7.26$
  Q  0.6645  21.5$  14.33$  12.07$
  Q  0.6645  20.12$  14.11$  11.74$
  Q  -1.3290  20.84$  14.42$  11.61$
  Q  0.6645  14.16$  14.18$  3.69$
  Q  0.6645  15.7$  14.07$  3.56$
  Q  -1.3290  14.92$  14.4$  3.42$
  Q  0.6645  4.75$  10.8$  5.59$
  Q  0.6645  4.25$  10.81$  4.27$
  Q  -1.3290  4.72$  11.1$  4.86$
  Q  0.6645  4.03$  6.34$  2.01$
  Q  0.6645  5.33$  6.44$  2.86$
  Q  -1.3290  4.77$  6.67$  2.26$
  Q  0.6645  11.54$  20.9$  5.5$
  Q  0.6645  10.51$  19.66$  5.3$
  Q  -1.3290  11.1$  20.16$  5.67$
  Q  0.6645  6.83$  12.37$  19.68$
  Q  0.6645  7.79$  11.92$  18.68$
  Q  -1.3290  7.04$  11.87$  19.02$
  Q  0.6645  3.84$  4.12$  12.73$
  Q  0.6645  3.18$  3.64$  14.11$
  Q  -1.3290  3.42$  4.19$  13.48$
  Q  0.6645  14.24$  3.26$  6.36$
  Q  0.6645  13.89$  4.54$  5.44$
  Q  -1.3290  14.38$  3.96$  5.88$
  Q  0.6645  3.93$  9.64$  18.23$
  Q  0.6645  3.68$  9.19$  19.59$
  Q  -1.3290  3.46$  9.25$  18.81$
*
