! NoMOPrint PrintBasis #MINIPRINT SMALLPRINT LARGEPRINT
! ALLPOP XYZFILE
#! BP86 3-21G   TightSCF
! ENGRAD
! B3LYP NormalPNO PModel #DecontractAux
#! VerySlowConv 
 %maxcore 5000
 %scf  maxiter   500  end 

%pal
    nprocs 32
end

%basis
    NewGTO O    # New basis for oxygen
        "aug-cc-pVTZ"
    end
    NewGTO C    # New basis for carbon
        "aug-cc-pVTZ"
    end
    NewGTO H    # New basis for hydrogen
        "cc-pVTZ"
    end
end

* xyz 0   1
  C  12.52  11.11  11.72  #1
  H  13.61  11.1  11.67  #2
  H  12.19  10.38  12.4  #3
  C  12.02  10.87  10.38  #4
  H  12.3  11.65  9.7  #5
  H  12.5  9.93  9.98  #6
  C  10.5  10.75  10.35  #7
  H  10.18  10.92  9.31  #8
  H  10.02  11.54  10.94  #9
  C  10.03  9.41  10.86  #10
  H  10.15  9.23  11.96  #11
  H  10.57  8.61  10.39  #12
  O  8.61  9.14  10.58  #13
  H  8.1  9.86  10.98  #14
  O  12.01  12.35  12.33  #15
  H  12.56  13.1  12.08  #16
  O  16.25  10.35  11.13  #17
  H  15.85  11.06  10.54  #18
  H  17.04  10.09  10.67  #19
  O  15.15  8.75  13.41  #20
  H  14.27  9.17  13.55  #21
  H  15.48  9.15  12.61  #22
  O  9.73  10.48  15  #23
  H  9.45  11.25  14.45  #24
  H  10.66  10.44  14.93  #25
  O  12.57  15.78  13.18  #26
  H  12.6  16.43  13.97  #27
  H  13.49  15.71  12.9  #28
  O  9.06  9.98  6.37  #29
  H  9.43  9.37  7.05  #30
  H  9.4  9.67  5.49  #31
  O  15.26  16.42  11.97  #32
  H  16  16.06  12.49  #33
  H  15.07  17.29  12.35  #34
  O  9.15  7.97  8.35  #35
  H  8.51  7.89  7.64  #36
  H  8.6  8.38  9.04  #37
  O  14.22  13.28  7.51  #38
  H  14.63  12.92  8.32  #39
  H  13.29  13.4  7.85  #40
  O  17.16  11.22  13.85  #41
  H  17.69  10.88  13.11  #42
  H  16.66  10.39  14.13  #43
  O  12.81  9.7  14.79  #44
  H  13.03  10.22  15.63  #45
  H  12.93  8.75  15.08  #46
  O  8.56  8.53  16.64  #47
  H  7.84  8.83  17.25  #48
  H  8.84  9.35  16.25  #49
  O  9.55  12.81  13.3  #50
  H  10.45  12.55  12.99  #51
  H  9.68  13.64  13.71  #52
  O  13.47  14.21  10.68  #53
  H  14.2  14.9  10.51  #54
  H  12.78  14.47  10.05  #55
  O  9.72  16.16  13.61  #56
  H  10.43  15.9  12.99  #57
  H  10  15.69  14.42  #58
  O  14.85  8.22  9.77  #59
  H  15.59  8.71  10.3  #60
  H  14.51  7.61  10.47  #61
  O  6.51  10.83  11.81  #62
  H  6.57  10.12  12.48  #63
  H  6.28  11.73  12.17  #64
  O  9.4  9.93  3.55  #65
  H  9.12  10.91  3.5  #66
  H  10.27  9.98  3.1  #67
  O  18.3  8.7  11.91  #68
  H  18.43  8.47  12.84  #69
  H  18.88  9.42  11.84  #70
  O  12.89  18.18  14.8  #71
  H  13.01  18.74  14.04  #72
  H  13.68  18.34  15.35  #73
  O  9.04  13.45  8.75  #74
  H  8.45  13.69  9.5  #75
  H  8.51  12.91  8.14  #76
  O  8.07  6.68  11.97  #77
  H  8.26  7.5  11.49  #78
  H  8.25  7  12.9  #79
  O  11.76  6.76  8.26  #80
  H  11.87  7.36  7.51  #81
  H  10.87  6.96  8.6  #82
  O  15.47  12.7  9.74  #83
  H  14.96  13.18  10.4  #84
  H  16.41  12.87  9.9  #85
  O  18.17  9.98  9.22  #86
  H  18.04  10.74  8.61  #87
  H  18.97  10.14  9.59  #88
  O  17.24  8.12  14.69  #89
  H  16.43  8.4  14.19  #90
  H  17.28  8.58  15.51  #91
  O  13.59  6.62  11.74  #92
  H  12.93  6.22  12.31  #93
  H  14.23  6.97  12.37  #94
  O  7.77  12.34  6.29  #95
  H  8.38  12.79  5.68  #96
  H  8.21  11.45  6.4  #97
  O  11.2  17.04  11.13  #98
  H  11.87  16.53  11.63  #99
  H  11.13  17.96  11.39  #100
  Q  0.6645  9.93$  15.36$  16.38$
  Q  0.6645  9.39$  14.02$  15.83$
  Q  -1.3290  9.95$  14.68$  15.88$
  Q  0.6645  7.59$  17.02$  5.23$
  Q  0.6645  7.13$  16.29$  6.54$
  Q  -1.3290  7.66$  16.52$  5.89$
  Q  0.6645  19.02$  14.75$  6.48$
  Q  0.6645  20.28$  15.03$  5.74$
  Q  -1.3290  19.78$  15.08$  6.42$
  Q  0.6645  5.52$  10.46$  0.81$
  Q  0.6645  6.37$  9.44$  1.71$
  Q  -1.3290  5.75$  10.02$  1.53$
  Q  0.6645  16.68$  4.34$  5.84$
  Q  0.6645  16.06$  5.52$  6.65$
  Q  -1.3290  16.21$  5.03$  5.95$
  Q  0.6645  16.6$  3.66$  10.32$
  Q  0.6645  16.28$  2.19$  10.3$
  Q  -1.3290  16.41$  2.95$  10.66$
  Q  0.6645  19.64$  11.51$  3.45$
  Q  0.6645  18.37$  10.59$  3.83$
  Q  -1.3290  18.84$  11.19$  3.4$
  Q  0.6645  6.51$  13.86$  13.44$
  Q  0.6645  5.35$  13.77$  12.28$
  Q  -1.3290  6.02$  13.5$  12.81$
  Q  0.6645  3.62$  15.16$  10.55$
  Q  0.6645  4.76$  15.56$  11.53$
  Q  -1.3290  4.23$  15.03$  11.12$
  Q  0.6645  6.93$  2.09$  5.22$
  Q  0.6645  8.42$  2.02$  5.22$
  Q  -1.3290  7.68$  2.39$  5.14$
  Q  0.6645  2$  10.31$  12.51$
  Q  0.6645  1.44$  10.93$  11.27$
  Q  -1.3290  1.61$  10.9$  12.08$
  Q  0.6645  3.8$  8.98$  2.24$
  Q  0.6645  3.1$  8.75$  3.59$
  Q  -1.3290  3.17$  8.72$  2.74$
  Q  0.6645  15.91$  14.15$  13.75$
  Q  0.6645  15.72$  12.72$  13.44$
  Q  -1.3290  15.45$  13.47$  13.63$
  Q  0.6645  3.22$  2.77$  10.83$
  Q  0.6645  2.19$  1.66$  10.24$
  Q  -1.3290  2.97$  2.06$  10.34$
  Q  0.6645  10.84$  1.65$  6.3$
  Q  0.6645  9.63$  1.16$  6.96$
  Q  -1.3290  10.08$  1.38$  6.32$
  Q  0.6645  10.29$  16.7$  9.72$
  Q  0.6645  9.41$  15.89$  8.62$
  Q  -1.3290  9.82$  16.58$  9$
  Q  0.6645  4.35$  16.81$  13.68$
  Q  0.6645  5.5$  17.21$  13$
  Q  -1.3290  4.7$  17.04$  12.98$
  Q  0.6645  13.84$  1.76$  4.75$
  Q  0.6645  15.09$  2.52$  5.06$
  Q  -1.3290  14.32$  2.28$  5.2$
  Q  0.6645  10.34$  14.65$  1.82$
  Q  0.6645  10.4$  14.53$  0.2$
  Q  -1.3290  10.34$  14.93$  0.98$
  Q  0.6645  7.87$  19.7$  6.35$
  Q  0.6645  8.78$  18.39$  6.67$
  Q  -1.3290  8.56$  19.23$  6.62$
  Q  0.6645  12.42$  11.9$  1.67$
  Q  0.6645  11.83$  12.99$  0.52$
  Q  -1.3290  12.41$  12.54$  1.06$
  Q  0.6645  20.05$  14.31$  12.32$
  Q  0.6645  20.59$  15.14$  13.48$
  Q  -1.3290  20.08$  14.96$  12.84$
  Q  0.6645  14.2$  17.42$  2.52$
  Q  0.6645  13.4$  16.64$  1.54$
  Q  -1.3290  13.66$  16.84$  2.3$
  Q  0.6645  19.44$  5.6$  8.03$
  Q  0.6645  19.98$  4.21$  8.45$
  Q  -1.3290  19.37$  4.77$  8.27$
  Q  0.6645  8.81$  14.71$  5.3$
  Q  0.6645  10.2$  14.16$  4.99$
  Q  -1.3290  9.36$  14.2$  4.93$
  Q  0.6645  5.07$  10.52$  5.3$
  Q  0.6645  4.98$  11.06$  6.63$
  Q  -1.3290  5.01$  10.45$  6.09$
  Q  0.6645  19.77$  6.78$  14.02$
  Q  0.6645  19.81$  8.23$  14.83$
  Q  -1.3290  19.96$  7.63$  14.19$
  Q  0.6645  0.4$  14.45$  11.86$
  Q  0.6645  0.57$  13.05$  12.28$
  Q  -1.3290  0.42$  13.64$  11.72$
  Q  0.6645  10.12$  19.62$  15$
  Q  0.6645  11.46$  19.06$  15.62$
  Q  -1.3290  10.66$  19.44$  15.61$
  Q  0.6645  10.1$  7.64$  17.11$
  Q  0.6645  11.69$  7.62$  16.62$
  Q  -1.3290  10.98$  7.56$  17.16$
  Q  0.6645  14.88$  16.42$  17.49$
  Q  0.6645  14.66$  14.87$  17.19$
  Q  -1.3290  15.05$  15.57$  17.52$
  Q  0.6645  18.53$  13.74$  18.47$
  Q  0.6645  18.6$  12.2$  18.94$
  Q  -1.3290  18.84$  12.93$  18.51$
  Q  0.6645  17.66$  6.31$  5$
  Q  0.6645  19.21$  6.56$  5.01$
  Q  -1.3290  18.4$  6.71$  4.82$
  Q  0.6645  17.74$  19.33$  14.97$
  Q  0.6645  18.31$  18.17$  15.94$
  Q  -1.3290  17.73$  18.68$  15.55$
  Q  0.6645  17.5$  3.44$  12.71$
  Q  0.6645  17.64$  4.89$  12.82$
  Q  -1.3290  17.67$  4.14$  13.1$
  Q  0.6645  0.75$  7.02$  11.71$
  Q  0.6645  -0.47$  7.59$  12.22$
  Q  -1.3290  0.1$  7.48$  11.64$
  Q  0.6645  13.07$  6.32$  15.1$
  Q  0.6645  13.85$  6.82$  16.3$
  Q  -1.3290  13.34$  6.88$  15.65$
  Q  0.6645  10.95$  9.14$  18.2$
  Q  0.6645  10.19$  10.5$  18.54$
  Q  -1.3290  10.84$  9.93$  18.5$
  Q  0.6645  15.94$  6.49$  8.88$
  Q  0.6645  17.18$  5.68$  8.73$
  Q  -1.3290  16.38$  5.79$  8.9$
  Q  0.6645  18.01$  15.25$  13.75$
  Q  0.6645  17.14$  16.13$  14.74$
  Q  -1.3290  17.29$  15.55$  14.1$
  Q  0.6645  19.91$  17.7$  11.09$
  Q  0.6645  19.82$  16.82$  12.34$
  Q  -1.3290  19.78$  17.55$  11.89$
  Q  0.6645  13.78$  4.92$  3.65$
  Q  0.6645  15.04$  5.34$  4.43$
  Q  -1.3290  14.46$  5.38$  3.82$
  Q  0.6645  13.78$  4.32$  11.43$
  Q  0.6645  14.73$  3.18$  11.26$
  Q  -1.3290  14.04$  3.54$  11.55$
  Q  0.6645  15.31$  17.25$  7.64$
  Q  0.6645  14.8$  18.42$  6.89$
  Q  -1.3290  15.12$  17.66$  6.94$
  Q  0.6645  8.72$  14.42$  11.64$
  Q  0.6645  7.26$  14.17$  11.57$
  Q  -1.3290  7.99$  14.44$  11.25$
  Q  0.6645  15.11$  14.92$  8.61$
  Q  0.6645  16.4$  15.81$  8.71$
  Q  -1.3290  15.55$  15.65$  8.73$
  Q  0.6645  14.22$  7.87$  1.51$
  Q  0.6645  14.25$  7.22$  2.96$
  Q  -1.3290  14.21$  7.86$  2.38$
  Q  0.6645  1.81$  15.71$  8.72$
  Q  0.6645  3.31$  15.38$  8.35$
  Q  -1.3290  2.67$  15.68$  8.82$
  Q  0.6645  5.42$  15.41$  7.66$
  Q  0.6645  4.68$  14.95$  6.39$
  Q  -1.3290  4.83$  14.99$  7.24$
  Q  0.6645  7.94$  15.18$  20.02$
  Q  0.6645  8.46$  14.4$  18.72$
  Q  -1.3290  8.1$  15.05$  19.15$
  Q  0.6645  4.59$  13.3$  16.17$
  Q  0.6645  4.05$  13.01$  14.72$
  Q  -1.3290  4.21$  12.88$  15.52$
  Q  0.6645  15.72$  5.41$  17.33$
  Q  0.6645  14.37$  5.33$  18.24$
  Q  -1.3290  14.99$  5.7$  17.74$
  Q  0.6645  18.4$  19$  12.45$
  Q  0.6645  18.24$  20.61$  12.23$
  Q  -1.3290  18.05$  19.81$  12.53$
  Q  0.6645  3.99$  4.69$  11.41$
  Q  0.6645  2.68$  4.41$  12.11$
  Q  -1.3290  3.2$  4.43$  11.43$
  Q  0.6645  16.62$  19.16$  10.56$
  Q  0.6645  15.95$  17.85$  10.4$
  Q  -1.3290  16.45$  18.45$  10.16$
  Q  0.6645  19.2$  5.34$  10.88$
  Q  0.6645  18.61$  6.73$  11.23$
  Q  -1.3290  18.63$  5.88$  11.18$
  Q  0.6645  12.42$  4.16$  18.34$
  Q  0.6645  13.32$  4$  19.48$
  Q  -1.3290  13.11$  3.96$  18.68$
  Q  0.6645  13.86$  17.4$  8.99$
  Q  0.6645  12.53$  17.64$  9.76$
  Q  -1.3290  13.11$  17.77$  9.16$
  Q  0.6645  14.49$  19.93$  12.39$
  Q  0.6645  15.7$  19.44$  13.13$
  Q  -1.3290  14.95$  19.34$  12.73$
  Q  0.6645  12.59$  2.15$  12.11$
  Q  0.6645  11.52$  1.73$  11.2$
  Q  -1.3290  11.99$  1.67$  11.89$
  Q  0.6645  11.97$  10.33$  19.98$
  Q  0.6645  12.74$  11.11$  21.09$
  Q  -1.3290  12.37$  10.44$  20.73$
  Q  0.6645  6.1$  10.45$  17.38$
  Q  0.6645  6.21$  10.09$  18.85$
  Q  -1.3290  6.3$  9.93$  18.04$
  Q  0.6645  6.27$  2.63$  12.64$
  Q  0.6645  6.31$  4.11$  12.08$
  Q  -1.3290  6.54$  3.45$  12.58$
  Q  0.6645  16.02$  8.46$  6.85$
  Q  0.6645  14.98$  8.2$  7.91$
  Q  -1.3290  15.33$  8.11$  7.13$
  Q  0.6645  6.16$  9.9$  14.97$
  Q  0.6645  5.68$  11.3$  15.21$
  Q  -1.3290  6.22$  10.66$  15.3$
  Q  0.6645  15.66$  17.92$  16.11$
  Q  0.6645  15.49$  18.51$  17.57$
  Q  -1.3290  15.25$  18.15$  16.84$
  Q  0.6645  20.3$  10.02$  16.79$
  Q  0.6645  19.88$  10.9$  15.59$
  Q  -1.3290  19.94$  10.18$  16.04$
  Q  0.6645  2.05$  10.61$  8.79$
  Q  0.6645  2.36$  11.73$  9.69$
  Q  -1.3290  1.87$  11.24$  9.28$
  Q  0.6645  14.21$  12.99$  2.16$
  Q  0.6645  15.6$  12.69$  1.81$
  Q  -1.3290  14.98$  12.77$  2.36$
  Q  0.6645  1.51$  9.14$  5.25$
  Q  0.6645  2.9$  9.84$  5.67$
  Q  -1.3290  2.37$  9.22$  5.38$
  Q  0.6645  9.01$  4.07$  7.23$
  Q  0.6645  10.23$  4.92$  7.59$
  Q  -1.3290  9.63$  4.61$  7.1$
  Q  0.6645  7.41$  19.6$  10$
  Q  0.6645  8.29$  18.44$  9.46$
  Q  -1.3290  7.79$  18.83$  10.01$
  Q  0.6645  10.88$  5.5$  17.95$
  Q  0.6645  10.71$  4.05$  17.45$
  Q  -1.3290  10.67$  4.68$  18.01$
  Q  0.6645  17.69$  15.98$  19.66$
  Q  0.6645  17.36$  15.73$  18.22$
  Q  -1.3290  17.84$  15.7$  18.9$
  Q  0.6645  5.77$  5.7$  15.91$
  Q  0.6645  5.88$  6.77$  16.93$
  Q  -1.3290  5.62$  6.46$  16.22$
  Q  0.6645  10.14$  3.21$  2.54$
  Q  0.6645  10.64$  2.91$  3.87$
  Q  -1.3290  10.57$  2.76$  3.07$
  Q  0.6645  18.1$  14.26$  10.15$
  Q  0.6645  18.83$  12.94$  9.76$
  Q  -1.3290  18.24$  13.41$  10.17$
  Q  0.6645  7.65$  18.14$  11.89$
  Q  0.6645  8.11$  16.96$  12.76$
  Q  -1.3290  7.56$  17.53$  12.46$
  Q  0.6645  20.04$  11.34$  11.57$
  Q  0.6645  18.83$  12.18$  11.46$
  Q  -1.3290  19.34$  11.68$  11.87$
  Q  0.6645  0.9$  11.62$  14.86$
  Q  0.6645  2.32$  11.87$  15.54$
  Q  -1.3290  1.51$  11.52$  15.43$
  Q  0.6645  13.38$  16.22$  6.24$
  Q  0.6645  12.61$  17.13$  7.12$
  Q  -1.3290  12.7$  16.54$  6.55$
  Q  0.6645  7$  3.4$  15.86$
  Q  0.6645  6.71$  4.04$  14.53$
  Q  -1.3290  6.71$  4.03$  15.38$
  Q  0.6645  3.3$  8.26$  8.91$
  Q  0.6645  2.95$  8.23$  7.39$
  Q  -1.3290  2.82$  8.36$  8.24$
  Q  0.6645  13.38$  0.35$  12.13$
  Q  0.6645  14.45$  0.4$  11.23$
  Q  -1.3290  14.16$  0.22$  11.96$
  Q  0.6645  12.61$  16.71$  19.11$
  Q  0.6645  11.67$  16.74$  20.14$
  Q  -1.3290  11.95$  16.45$  19.46$
  Q  0.6645  10.62$  20.03$  6.74$
  Q  0.6645  11.45$  20.26$  5.49$
  Q  -1.3290  11.32$  20.16$  6.3$
  Q  0.6645  3.29$  15.97$  15.69$
  Q  0.6645  4.51$  16.8$  16.22$
  Q  -1.3290  4.08$  16.28$  15.71$
  Q  0.6645  3.69$  7.24$  19.1$
  Q  0.6645  4.61$  8.34$  18.49$
  Q  -1.3290  3.87$  7.98$  18.81$
  Q  0.6645  20.67$  7.62$  8.24$
  Q  0.6645  19.45$  8.6$  8.22$
  Q  -1.3290  19.95$  8$  7.92$
  Q  0.6645  14.4$  10.84$  18.09$
  Q  0.6645  15.87$  10.51$  18.16$
  Q  -1.3290  15.12$  10.66$  18.48$
  Q  0.6645  8.12$  5.85$  15.28$
  Q  0.6645  8.48$  7.33$  15.52$
  Q  -1.3290  8.36$  6.64$  15.08$
  Q  0.6645  14.98$  9.48$  3.12$
  Q  0.6645  15.31$  10.99$  3.13$
  Q  -1.3290  15.29$  10.21$  3.45$
  Q  0.6645  10.6$  13.06$  19.89$
  Q  0.6645  11.73$  14.02$  20.06$
  Q  -1.3290  11.09$  13.53$  20.35$
  Q  0.6645  7.49$  3.58$  19.56$
  Q  0.6645  8.87$  4.2$  19.07$
  Q  -1.3290  8.13$  4.15$  19.56$
  Q  0.6645  11.77$  17.17$  3.21$
  Q  0.6645  11.35$  17.17$  4.63$
  Q  -1.3290  11.24$  17.33$  3.81$
  Q  0.6645  10.93$  5.64$  3.2$
  Q  0.6645  9.88$  6.67$  2.8$
  Q  -1.3290  10.33$  5.99$  2.71$
  Q  0.6645  12.75$  9.21$  2.27$
  Q  0.6645  11.87$  9.85$  1.13$
  Q  -1.3290  12.14$  9.77$  1.92$
  Q  0.6645  8.07$  7.27$  20.22$
  Q  0.6645  9.28$  7$  21.02$
  Q  -1.3290  8.67$  7.47$  20.77$
  Q  0.6645  14.53$  3.94$  13.63$
  Q  0.6645  15.32$  4.37$  15.01$
  Q  -1.3290  14.79$  3.9$  14.46$
  Q  0.6645  10.78$  20.25$  10.98$
  Q  0.6645  9.37$  19.58$  11.18$
  Q  -1.3290  10.17$  19.72$  11.34$
  Q  0.6645  5.05$  8.5$  13.81$
  Q  0.6645  6.29$  7.66$  14.34$
  Q  -1.3290  5.87$  8.23$  13.86$
  Q  0.6645  14.9$  12.46$  19.41$
  Q  0.6645  15.06$  13.96$  18.95$
  Q  -1.3290  14.8$  13.31$  19.45$
  Q  0.6645  4.71$  14.58$  18.63$
  Q  0.6645  6.19$  14.61$  18.18$
  Q  -1.3290  5.33$  14.46$  18.09$
  Q  0.6645  18.03$  3.31$  7.68$
  Q  0.6645  16.56$  2.72$  7.94$
  Q  -1.3290  17.34$  2.77$  7.58$
  Q  0.6645  10.74$  14.05$  8.25$
  Q  0.6645  11.69$  15.17$  7.64$
  Q  -1.3290  11.46$  14.52$  8.16$
  Q  0.6645  14.46$  5.13$  9.54$
  Q  0.6645  13.03$  5.79$  9.11$
  Q  -1.3290  13.6$  5.2$  9.42$
  Q  0.6645  17.17$  5.04$  14.84$
  Q  0.6645  17.08$  6.32$  15.59$
  Q  -1.3290  16.99$  5.49$  15.49$
  Q  0.6645  15.34$  7.32$  18.58$
  Q  0.6645  15.08$  8.79$  18.98$
  Q  -1.3290  15.3$  7.96$  19.12$
  Q  0.6645  9.38$  5.38$  11.8$
  Q  0.6645  10.81$  4.74$  12.14$
  Q  -1.3290  10.07$  4.83$  11.72$
  Q  0.6645  9.17$  17.4$  3.78$
  Q  0.6645  8.48$  18.59$  3.02$
  Q  -1.3290  8.49$  17.87$  3.48$
  Q  0.6645  21.47$  9.37$  10.54$
  Q  0.6645  21.48$  10.69$  9.79$
  Q  -1.3290  21.13$  10.11$  10.3$
  Q  0.6645  8.42$  8.75$  2.68$
  Q  0.6645  8.38$  8.22$  1.11$
  Q  -1.3290  8.14$  8.26$  1.97$
  Q  0.6645  6.53$  5.54$  18.89$
  Q  0.6645  5.78$  6.7$  19.72$
  Q  -1.3290  5.95$  6.16$  19.04$
  Q  0.6645  7.98$  17.95$  14.9$
  Q  0.6645  8.77$  17.81$  16.17$
  Q  -1.3290  8.05$  17.82$  15.72$
  Q  0.6645  1.01$  7.49$  8.53$
  Q  0.6645  0.09$  7.22$  9.82$
  Q  -1.3290  0.38$  7.13$  9.03$
  Q  0.6645  13.39$  8.9$  21.27$
  Q  0.6645  14.27$  7.97$  20.69$
  Q  -1.3290  13.72$  8.15$  21.26$
  Q  0.6645  7.61$  5.55$  4.65$
  Q  0.6645  8.54$  5.71$  5.89$
  Q  -1.3290  7.87$  5.89$  5.37$
  Q  0.6645  8.9$  16.4$  17.97$
  Q  0.6645  10.52$  16.59$  18.06$
  Q  -1.3290  9.71$  16.6$  17.69$
  Q  0.6645  13.8$  13.74$  15.09$
  Q  0.6645  12.46$  13.94$  15.84$
  Q  -1.3290  13.26$  13.72$  15.72$
  Q  0.6645  13.45$  20.21$  6.62$
  Q  0.6645  14.92$  20.73$  6.53$
  Q  -1.3290  14.27$  20.31$  6.86$
  Q  0.6645  8.31$  2.61$  12.93$
  Q  0.6645  9.71$  2.09$  12.71$
  Q  -1.3290  8.98$  2.15$  13.14$
  Q  0.6645  3.62$  8.64$  12.35$
  Q  0.6645  2.99$  7.92$  13.52$
  Q  -1.3290  3.26$  8.6$  13.1$
  Q  0.6645  12.58$  2.23$  8.41$
  Q  0.6645  11.22$  2$  9.09$
  Q  -1.3290  11.92$  1.77$  8.63$
  Q  0.6645  4.52$  17.94$  11.08$
  Q  0.6645  3.72$  17.66$  9.84$
  Q  -1.3290  4.26$  18.09$  10.33$
  Q  0.6645  7.63$  2.43$  7.56$
  Q  0.6645  7.41$  3.64$  8.42$
  Q  -1.3290  7.74$  2.87$  8.24$
  Q  0.6645  12.62$  9.06$  5.49$
  Q  0.6645  13.66$  8.03$  5.93$
  Q  -1.3290  12.89$  8.29$  5.71$
  Q  0.6645  6.72$  16.97$  8.98$
  Q  0.6645  7.11$  15.54$  9.36$
  Q  -1.3290  6.83$  16.12$  8.84$
  Q  0.6645  12.7$  3.49$  15.08$
  Q  0.6645  11.45$  2.75$  14.81$
  Q  -1.3290  11.86$  3.44$  15.01$
  Q  0.6645  18.6$  12.76$  16.5$
  Q  0.6645  18.08$  12.33$  15.17$
  Q  -1.3290  18.61$  12.73$  15.68$
  Q  0.6645  5.18$  4.83$  3.95$
  Q  0.6645  3.8$  5.15$  4.44$
  Q  -1.3290  4.38$  4.71$  4$
  Q  0.6645  12.09$  20.08$  8.93$
  Q  0.6645  12.03$  21.62$  9.25$
  Q  -1.3290  11.89$  20.79$  9.39$
  Q  0.6645  1.07$  5.09$  9.17$
  Q  0.6645  2.06$  4.2$  9.85$
  Q  -1.3290  1.42$  4.35$  9.35$
  Q  0.6645  6.51$  7.08$  6.23$
  Q  0.6645  5.73$  8.41$  6.85$
  Q  -1.3290  6$  7.55$  6.79$
  Q  0.6645  16.77$  15.16$  5.5$
  Q  0.6645  16.06$  14.23$  6.61$
  Q  -1.3290  16.7$  14.6$  6.16$
  Q  0.6645  5.54$  15.19$  15.24$
  Q  0.6645  6.86$  15.83$  15.36$
  Q  -1.3290  6.37$  15.18$  15.22$
  Q  0.6645  12.32$  10.96$  17.57$
  Q  0.6645  12.96$  12.09$  16.74$
  Q  -1.3290  12.92$  11.29$  17.1$
  Q  0.6645  6.61$  12.54$  7.68$
  Q  0.6645  5.3$  13.26$  8.08$
  Q  -1.3290  5.9$  12.69$  8.11$
  Q  0.6645  5.19$  11.23$  10.73$
  Q  0.6645  5.05$  11.42$  9.27$
  Q  -1.3290  4.83$  11.11$  9.99$
  Q  0.6645  14.47$  -0.46$  8.68$
  Q  0.6645  14.76$  0.97$  8.64$
  Q  -1.3290  14.88$  0.19$  8.93$
  Q  0.6645  14.05$  10.73$  4.94$
  Q  0.6645  13.43$  11.51$  6.06$
  Q  -1.3290  13.42$  10.99$  5.42$
  Q  0.6645  2.61$  16.67$  12.38$
  Q  0.6645  1.43$  16.18$  13.15$
  Q  -1.3290  1.91$  16.22$  12.48$
  Q  0.6645  17.51$  17.6$  5.01$
  Q  0.6645  16.14$  17.08$  5.4$
  Q  -1.3290  16.83$  17.14$  4.91$
  Q  0.6645  20.77$  13.7$  8.47$
  Q  0.6645  19.93$  12.69$  7.79$
  Q  -1.3290  20.34$  13$  8.45$
  Q  0.6645  1.52$  9.74$  16.32$
  Q  0.6645  2.23$  8.81$  17.41$
  Q  -1.3290  1.59$  9.13$  16.93$
  Q  0.6645  3.04$  3.71$  8.14$
  Q  0.6645  3.88$  3.48$  6.86$
  Q  -1.3290  3.7$  3.79$  7.62$
  Q  0.6645  5.7$  5.67$  10.13$
  Q  0.6645  6.27$  6.29$  11.42$
  Q  -1.3290  5.67$  5.84$  10.96$
  Q  0.6645  18.16$  9.97$  17.03$
  Q  0.6645  17.25$  8.7$  17.45$
  Q  -1.3290  17.44$  9.47$  17.15$
  Q  0.6645  12.2$  6.33$  5.1$
  Q  0.6645  11.08$  5.29$  5.51$
  Q  -1.3290  11.7$  5.61$  5.02$
  Q  0.6645  8.74$  12.39$  17.86$
  Q  0.6645  8.49$  12.03$  19.35$
  Q  -1.3290  8.96$  12.17$  18.66$
  Q  0.6645  19.46$  7.75$  18$
  Q  0.6645  19.26$  6.42$  17.24$
  Q  -1.3290  19$  7.12$  17.6$
  Q  0.6645  20.36$  12.95$  14.68$
  Q  0.6645  20.59$  12.17$  13.41$
  Q  -1.3290  20.83$  12.57$  14.08$
  Q  0.6645  7.19$  13.66$  16.43$
  Q  0.6645  7.48$  12.22$  16.13$
  Q  -1.3290  7.58$  12.96$  16.53$
  Q  0.6645  5.3$  13.64$  4.19$
  Q  0.6645  4.06$  14.55$  4.18$
  Q  -1.3290  4.87$  14.36$  4.34$
  Q  0.6645  17.71$  11.26$  6.44$
  Q  0.6645  17.63$  12.76$  6.76$
  Q  -1.3290  17.86$  11.96$  6.86$
  Q  0.6645  9.94$  20.62$  12.89$
  Q  0.6645  9.15$  21.81$  13.63$
  Q  -1.3290  9.42$  21$  13.48$
  Q  0.6645  6.04$  0.78$  11.49$
  Q  0.6645  4.63$  1.24$  11.61$
  Q  -1.3290  5.37$  1.06$  11.89$
  Q  0.6645  7.56$  13.11$  2.47$
  Q  0.6645  8.72$  13.19$  3.44$
  Q  -1.3290  8.2$  12.8$  2.9$
  Q  0.6645  17.93$  8.86$  5.48$
  Q  0.6645  16.59$  9.5$  5.05$
  Q  -1.3290  17.33$  9.42$  5.49$
  Q  0.6645  2.38$  12.98$  6.06$
  Q  0.6645  1.66$  12.28$  7.23$
  Q  -1.3290  1.94$  12.36$  6.44$
  Q  0.6645  6.52$  11.97$  4.35$
  Q  0.6645  5.68$  11.31$  3.29$
  Q  -1.3290  5.81$  11.73$  4$
  Q  0.6645  3.9$  6.48$  15.1$
  Q  0.6645  2.43$  5.98$  14.92$
  Q  -1.3290  3.13$  6.43$  14.74$
  Q  0.6645  10.03$  3.31$  10.69$
  Q  0.6645  9.21$  2.49$  9.59$
  Q  -1.3290  9.85$  2.64$  10.16$
  Q  0.6645  11.74$  5.12$  14.34$
  Q  0.6645  10.85$  6.27$  13.99$
  Q  -1.3290  11.55$  5.84$  13.95$
  Q  0.6645  17.76$  19.03$  8.59$
  Q  0.6645  18.64$  20.23$  8.21$
  Q  -1.3290  18.48$  19.41$  8.35$
  Q  0.6645  4.2$  6.52$  6.29$
  Q  0.6645  2.94$  7.17$  5.66$
  Q  -1.3290  3.5$  6.54$  5.82$
  Q  0.6645  14.35$  2.95$  7.12$
  Q  0.6645  14.2$  3.59$  8.45$
  Q  -1.3290  14.46$  2.98$  7.96$
  Q  0.6645  18.88$  16.16$  8.84$
  Q  0.6645  18.03$  16.9$  9.83$
  Q  -1.3290  18.22$  16.26$  9.33$
  Q  0.6645  8.69$  2.03$  15.18$
  Q  0.6645  9.07$  1.79$  16.64$
  Q  -1.3290  8.53$  1.9$  15.99$
  Q  0.6645  14.83$  13.95$  3.94$
  Q  0.6645  13.82$  15.18$  3.68$
  Q  -1.3290  14.27$  14.59$  4.17$
  Q  0.6645  5.39$  4.89$  8.08$
  Q  0.6645  6.19$  6.08$  8.29$
  Q  -1.3290  5.97$  5.32$  8.46$
  Q  0.6645  1.06$  7.37$  15.97$
  Q  0.6645  -0.24$  7.22$  15.01$
  Q  -1.3290  0.39$  6.98$  15.58$
  Q  0.6645  2.88$  14.24$  12.65$
  Q  0.6645  2.5$  12.84$  12.98$
  Q  -1.3290  2.77$  13.58$  13.16$
  Q  0.6645  7.14$  4.92$  2.15$
  Q  0.6645  7.37$  6.33$  2.64$
  Q  -1.3290  6.92$  5.61$  2.54$
  Q  0.6645  4.76$  7.46$  10.65$
  Q  0.6645  4.74$  9.01$  10.42$
  Q  -1.3290  4.4$  8.23$  10.52$
  Q  0.6645  12.81$  13.59$  4.83$
  Q  0.6645  12.01$  12.38$  4.45$
  Q  -1.3290  12.11$  13.2$  4.57$
*
