! NoMOPrint PrintBasis #MINIPRINT SMALLPRINT LARGEPRINT
! ALLPOP XYZFILE
#! BP86 3-21G   TightSCF
! ENGRAD
! B3LYP NormalPNO PModel #DecontractAux
#! VerySlowConv 
 %maxcore 5000
 %scf  maxiter   500  end 

%pal
    nprocs 32
end

%basis
    NewGTO O    # New basis for oxygen
        "aug-cc-pVTZ"
    end
    NewGTO C    # New basis for carbon
        "aug-cc-pVTZ"
    end
    NewGTO H    # New basis for hydrogen
        "cc-pVTZ"
    end
end

* xyz 0   1
  C  10.91  9.79  9.08  #1
  H  10.21  9.42  8.4  #2
  H  11.63  9.02  9.37  #3
  C  10.15  10.44  10.29  #4
  H  9.5  11.29  9.98  #5
  H  9.6  9.61  10.76  #6
  C  11.18  10.94  11.32  #7
  H  11.45  11.89  11.1  #8
  H  12.17  10.44  11.26  #9
  C  10.86  10.9  12.8  #10
  H  11.08  9.86  13.06  #11
  H  9.95  11.24  13.1  #12
  O  11.77  11.71  13.46  #13
  H  11.5  12.66  13.28  #14
  O  11.68  10.74  8.32  #15
  H  11.13  11.55  8.21  #16
  O  7.49  10.28  13.35  #17
  H  6.59  9.94  13.6  #18
  H  7.33  11.05  12.84  #19
  O  13.06  14.22  11.45  #20
  H  13.59  13.67  10.83  #21
  H  13.78  14.64  12.02  #22
  O  8.4  11.4  15.82  #23
  H  9.02  12.04  15.56  #24
  H  8.01  11.05  15  #25
  O  7.86  12.82  12.16  #26
  H  7.96  13.47  12.86  #27
  H  8.45  13.07  11.46  #28
  O  14.91  9.78  10.29  #29
  H  15.67  9.22  10.19  #30
  H  14.61  9.87  9.38  #31
  O  10.19  13.81  15.64  #32
  H  10.24  14.6  16.16  #33
  H  10.96  13.22  15.85  #34
  O  8.29  15.86  17.41  #35
  H  8.48  15.07  17.98  #36
  H  8.74  16.62  17.88  #37
  O  10.97  13.97  8.07  #38
  H  10.31  14.26  7.38  #39
  H  11.4  14.72  8.53  #40
  O  5.15  9.14  14.57  #41
  H  4.59  9.83  14.76  #42
  H  4.89  8.6  15.31  #43
  O  13.39  13.57  6.58  #44
  H  13.66  12.68  6.33  #45
  H  12.49  13.51  7.04  #46
  O  14.65  14.96  13.53  #47
  H  14.56  14.3  14.22  #48
  H  14.63  15.79  13.97  #49
  O  12.75  16.05  9.34  #50
  H  13.15  15.38  9.98  #51
  H  13.37  16.09  8.56  #52
  O  7.48  15.27  14.27  #53
  H  7.8  16.12  13.81  #54
  H  8.24  14.86  14.61  #55
  O  5.31  12.08  11.4  #56
  H  4.48  12.31  11.76  #57
  H  5.84  12.78  11.77  #58
  O  10.16  16.85  15.12  #59
  H  9.32  16.63  15.5  #60
  H  10.32  16.36  14.3  #61
  O  16.8  11.57  8.91  #62
  H  17.4  12.17  8.37  #63
  H  17.37  10.78  9.08  #64
  O  8.2  12.04  7.24  #65
  H  8.65  11.67  6.43  #66
  H  7.77  11.34  7.76  #67
  O  9.25  7.91  13.15  #68
  H  8.58  8.65  13.08  #69
  H  8.81  7.12  13.43  #70
  O  6.72  9.88  17.25  #71
  H  7.28  10.59  16.95  #72
  H  5.9  10.44  17.39  #73
  O  10.64  14.2  12.94  #74
  H  10.72  14.17  13.92  #75
  H  11.41  14.58  12.56  #76
  O  10.47  6.64  10.71  #77
  H  10.26  5.83  10.24  #78
  H  9.74  6.95  11.27  #79
  O  9.26  13.99  10.25  #80
  H  9.85  14.16  11.03  #81
  H  9.88  13.78  9.57  #82
  O  9.12  6.61  7.92  #83
  H  9.32  6.86  8.84  #84
  H  9.78  5.96  7.64  #85
  O  14.61  13.05  9.46  #86
  H  14.03  12.9  8.68  #87
  H  15.09  12.22  9.49  #88
  O  14.52  11.13  12.73  #89
  H  13.65  11.38  13.06  #90
  H  14.41  10.76  11.83  #91
  O  12.42  11.95  16.05  #92
  H  12.34  11.29  15.31  #93
  H  12.53  11.37  16.82  #94
  O  12.24  9.82  5.72  #95
  H  12.38  9.79  6.68  #96
  H  11.38  9.34  5.63  #97
  O  10.65  7.47  15.37  #98
  H  10.28  7.66  14.52  #99
  H  11.37  8.09  15.37  #100
  O  14.8  9.84  7.4  #101
  H  15.37  10.58  7.16  #102
  H  15.12  9.23  6.76  #103
  O  4.67  9.17  11.83  #104
  H  4.69  8.98  12.8  #105
  H  4.81  10.09  11.74  #106
  O  9.9  8.28  5.72  #107
  H  9.64  7.7  6.49  #108
  H  9.77  7.69  4.93  #109
  O  16.71  7.54  10.08  #110
  H  16.76  7.12  11  #111
  H  17.55  7.25  9.68  #112
  Q  0.6645  3.78$  14.38$  10.08$
  Q  0.6645  4.69$  13.48$  9.39$
  Q  -1.3290  4.35$  14.2$  9.54$
  Q  0.6645  7.9$  15.09$  20.2$
  Q  0.6645  8$  16.5$  20.81$
  Q  -1.3290  7.98$  15.64$  20.82$
  Q  0.6645  16.35$  15.38$  12.63$
  Q  0.6645  17.13$  14.16$  11.96$
  Q  -1.3290  17.03$  14.89$  12.42$
  Q  0.6645  8.85$  12.9$  18.55$
  Q  0.6645  7.5$  13.12$  19.02$
  Q  -1.3290  8.26$  13.35$  18.91$
  Q  0.6645  13.92$  12.68$  19.47$
  Q  0.6645  14.95$  11.95$  20.49$
  Q  -1.3290  14.58$  12.16$  19.74$
  Q  0.6645  5.71$  15.07$  13.23$
  Q  0.6645  4.12$  14.75$  13.17$
  Q  -1.3290  4.93$  14.96$  12.87$
  Q  0.6645  3.69$  15.38$  4.5$
  Q  0.6645  4.13$  15.96$  5.83$
  Q  -1.3290  4.25$  15.71$  5.05$
  Q  0.6645  17.75$  9.54$  14.14$
  Q  0.6645  18.93$  10.07$  14.77$
  Q  -1.3290  18.54$  9.61$  14.19$
  Q  0.6645  15.01$  11.52$  4.53$
  Q  0.6645  13.64$  11.01$  5.22$
  Q  -1.3290  14.33$  11.53$  5.03$
  Q  0.6645  19.13$  10.21$  4.26$
  Q  0.6645  20.09$  11.38$  4.01$
  Q  -1.3290  19.81$  10.61$  3.9$
  Q  0.6645  19.51$  6.53$  8.27$
  Q  0.6645  19.06$  5.44$  9.14$
  Q  -1.3290  18.91$  6.13$  8.71$
  Q  0.6645  13.55$  8.94$  18.49$
  Q  0.6645  14.16$  10.48$  18.64$
  Q  -1.3290  13.87$  9.72$  18.26$
  Q  0.6645  16.3$  16.55$  15.73$
  Q  0.6645  14.98$  16.67$  16.4$
  Q  -1.3290  15.54$  16.89$  15.83$
  Q  0.6645  12.06$  20.06$  8.64$
  Q  0.6645  11.53$  20.9$  7.45$
  Q  -1.3290  11.61$  20.2$  7.92$
  Q  0.6645  15.39$  12.49$  16.62$
  Q  0.6645  14.02$  12.8$  16.02$
  Q  -1.3290  14.78$  13.01$  16.31$
  Q  0.6645  9.62$  10.26$  5.36$
  Q  0.6645  10.42$  11.35$  4.65$
  Q  -1.3290  9.71$  10.97$  4.94$
  Q  0.6645  7.35$  9.51$  1.3$
  Q  0.6645  8.48$  8.98$  2.13$
  Q  -1.3290  7.68$  9.06$  1.93$
  Q  0.6645  5.5$  14.58$  18.9$
  Q  0.6645  5.23$  13.74$  20.11$
  Q  -1.3290  5.45$  13.87$  19.31$
  Q  0.6645  11.13$  15.04$  5.51$
  Q  0.6645  12.62$  14.99$  5.7$
  Q  -1.3290  11.93$  15.35$  5.42$
  Q  0.6645  13.55$  16.97$  4.5$
  Q  0.6645  14.21$  17.36$  3.2$
  Q  -1.3290  14.08$  16.88$  3.88$
  Q  0.6645  13.99$  8.75$  21.59$
  Q  0.6645  14.58$  7.6$  20.87$
  Q  -1.3290  14.01$  8.19$  20.97$
  Q  0.6645  9.14$  12.34$  21.12$
  Q  0.6645  10.28$  11.39$  21.76$
  Q  -1.3290  9.96$  12.03$  21.22$
  Q  0.6645  13.94$  6.96$  6.98$
  Q  0.6645  13.36$  8.03$  6.02$
  Q  -1.3290  13.59$  7.25$  6.28$
  Q  0.6645  9.67$  19.31$  10.26$
  Q  0.6645  8.6$  20.23$  10.65$
  Q  -1.3290  9.4$  19.96$  10.68$
  Q  0.6645  6.88$  18.15$  4.71$
  Q  0.6645  5.53$  17.52$  4.3$
  Q  -1.3290  6.03$  18.12$  4.64$
  Q  0.6645  6.64$  16.09$  9.65$
  Q  0.6645  6.01$  15.89$  10.91$
  Q  -1.3290  6.51$  16.27$  10.43$
  Q  0.6645  14.75$  18.65$  6.1$
  Q  0.6645  16.17$  19.3$  6.32$
  Q  -1.3290  15.35$  19.25$  6.01$
  Q  0.6645  15.82$  14.42$  8.68$
  Q  0.6645  16.29$  15.35$  7.52$
  Q  -1.3290  16.16$  15.13$  8.35$
  Q  0.6645  6.24$  12.75$  6.39$
  Q  0.6645  5.21$  13.76$  6.01$
  Q  -1.3290  5.58$  13.23$  6.52$
  Q  0.6645  12.18$  6.38$  10.95$
  Q  0.6645  13.61$  6.15$  10.42$
  Q  -1.3290  13.02$  6.24$  11.03$
  Q  0.6645  7.72$  6.43$  6.97$
  Q  0.6645  6.2$  6.14$  7.09$
  Q  -1.3290  6.93$  6.26$  6.67$
  Q  0.6645  15.05$  5.59$  20.87$
  Q  0.6645  15.4$  6.27$  19.5$
  Q  -1.3290  15.45$  6.13$  20.34$
  Q  0.6645  10.79$  3.97$  12.41$
  Q  0.6645  9.58$  3.72$  11.63$
  Q  -1.3290  10.39$  3.65$  11.79$
  Q  0.6645  5.24$  6.93$  3.19$
  Q  0.6645  6.1$  7.73$  2.06$
  Q  -1.3290  5.47$  7.25$  2.42$
  Q  0.6645  18.83$  14.81$  13.74$
  Q  0.6645  19.17$  13.46$  14.55$
  Q  -1.3290  19.29$  14.3$  14.3$
  Q  0.6645  16.65$  7.55$  17.47$
  Q  0.6645  15.71$  8.66$  17.6$
  Q  -1.3290  16.37$  8.22$  17.83$
  Q  0.6645  3.72$  8.17$  10.38$
  Q  0.6645  2.33$  7.38$  10.08$
  Q  -1.3290  3.18$  7.56$  10.07$
  Q  0.6645  10.63$  11.64$  19.56$
  Q  0.6645  10.82$  10.52$  18.54$
  Q  -1.3290  10.7$  11.3$  18.78$
  Q  0.6645  15.36$  9.79$  13.71$
  Q  0.6645  15.48$  8.33$  14.15$
  Q  -1.3290  15.6$  9.17$  14.22$
  Q  0.6645  5.81$  2.34$  5.95$
  Q  0.6645  4.28$  2.76$  6.04$
  Q  -1.3290  5.13$  2.88$  5.96$
  Q  0.6645  14.68$  17.86$  10.26$
  Q  0.6645  15.57$  17.04$  9.36$
  Q  -1.3290  15.4$  17.65$  9.88$
  Q  0.6645  12.09$  4.21$  8.96$
  Q  0.6645  11.26$  3.91$  10.18$
  Q  -1.3290  11.38$  4.22$  9.41$
  Q  0.6645  8.71$  18.19$  12.79$
  Q  0.6645  7.38$  17.85$  12.35$
  Q  -1.3290  7.96$  17.87$  12.9$
  Q  0.6645  11.12$  9.86$  1.16$
  Q  0.6645  10.29$  8.92$  0.2$
  Q  -1.3290  10.44$  9.43$  0.87$
  Q  0.6645  4.56$  14.53$  16.24$
  Q  0.6645  3.37$  14.61$  15.27$
  Q  -1.3290  3.95$  14.19$  15.75$
  Q  0.6645  16.27$  14.63$  19.21$
  Q  0.6645  15.74$  13.37$  18.68$
  Q  -1.3290  16.34$  13.95$  18.78$
  Q  0.6645  11.96$  15.38$  2.02$
  Q  0.6645  13.12$  15.28$  3$
  Q  -1.3290  12.67$  15.04$  2.33$
  Q  0.6645  2.68$  11.68$  14.84$
  Q  0.6645  2.6$  10.27$  14.3$
  Q  -1.3290  2.88$  10.87$  14.83$
  Q  0.6645  19.63$  12.09$  16.26$
  Q  0.6645  18.13$  11.97$  15.93$
  Q  -1.3290  18.97$  12.04$  15.72$
  Q  0.6645  18.36$  12.25$  6.52$
  Q  0.6645  18.93$  13.58$  7$
  Q  -1.3290  18.51$  12.85$  7.08$
  Q  0.6645  17.3$  12.23$  10.49$
  Q  0.6645  16.35$  12.01$  11.65$
  Q  -1.3290  17.08$  12.31$  11.29$
  Q  0.6645  9.43$  14.9$  0.17$
  Q  0.6645  10.17$  13.71$  0.63$
  Q  -1.3290  9.87$  14.47$  0.71$
  Q  0.6645  17.86$  12.44$  19.11$
  Q  0.6645  19.33$  12.08$  18.92$
  Q  -1.3290  18.52$  11.96$  19.17$
  Q  0.6645  13.04$  9.55$  16.23$
  Q  0.6645  13.79$  9.16$  14.89$
  Q  -1.3290  13.13$  9.28$  15.44$
  Q  0.6645  5.21$  3.86$  13.76$
  Q  0.6645  5.64$  5.12$  13.06$
  Q  -1.3290  5.61$  4.58$  13.7$
  Q  0.6645  4.32$  16.02$  8.36$
  Q  0.6645  5.12$  17.02$  7.55$
  Q  -1.3290  4.43$  16.69$  7.87$
  Q  0.6645  8.74$  20.84$  14.41$
  Q  0.6645  8.01$  19.41$  14.34$
  Q  -1.3290  8.09$  20.26$  14.43$
  Q  0.6645  17.84$  14.88$  15.49$
  Q  0.6645  16.9$  14.58$  16.75$
  Q  -1.3290  17.43$  15.05$  16.24$
  Q  0.6645  16.43$  9.95$  3.29$
  Q  0.6645  16.9$  11.39$  3.65$
  Q  -1.3290  16.37$  10.79$  3.31$
  Q  0.6645  20.43$  12.73$  10.46$
  Q  0.6645  19.96$  11.97$  9.29$
  Q  -1.3290  20.42$  12.53$  9.65$
  Q  0.6645  2.29$  12.67$  19.67$
  Q  0.6645  3.32$  12.1$  18.66$
  Q  -1.3290  2.88$  12.12$  19.36$
  Q  0.6645  1.93$  7.75$  13.44$
  Q  0.6645  0.87$  8.83$  13.2$
  Q  -1.3290  1.38$  8.35$  13.69$
  Q  0.6645  15.44$  6.23$  13.02$
  Q  0.6645  14.1$  6.96$  12.79$
  Q  -1.3290  14.82$  6.8$  13.2$
  Q  0.6645  10.91$  6.25$  3.24$
  Q  0.6645  9.91$  5.28$  2.91$
  Q  -1.3290  10.22$  5.84$  3.41$
  Q  0.6645  10.79$  1.26$  11.82$
  Q  0.6645  10.62$  -0.05$  11.22$
  Q  -1.3290  11.01$  0.47$  11.73$
  Q  0.6645  8.29$  2$  8.66$
  Q  0.6645  6.85$  2.29$  9.14$
  Q  -1.3290  7.52$  1.78$  8.98$
  Q  0.6645  10.36$  2.67$  3.19$
  Q  0.6645  10.52$  2.61$  1.64$
  Q  -1.3290  10.75$  2.56$  2.46$
  Q  0.6645  4.42$  2.68$  12.11$
  Q  0.6645  4.96$  1.88$  13.4$
  Q  -1.3290  4.46$  2.4$  12.92$
  Q  0.6645  1.76$  8.33$  5.56$
  Q  0.6645  1.09$  7.2$  5$
  Q  -1.3290  1.53$  7.57$  5.58$
  Q  0.6645  13.33$  16.86$  17.84$
  Q  0.6645  13.91$  15.44$  18.29$
  Q  -1.3290  13.9$  16.3$  18.2$
  Q  0.6645  8.82$  1.84$  5.15$
  Q  0.6645  10.25$  1.34$  5.47$
  Q  -1.3290  9.5$  1.4$  5.03$
  Q  0.6645  15.19$  14.54$  5.75$
  Q  0.6645  15.71$  15.92$  5.17$
  Q  -1.3290  15.75$  15.19$  5.59$
  Q  0.6645  11.34$  7.81$  18.05$
  Q  0.6645  12.12$  6.48$  18.04$
  Q  -1.3290  12.04$  7.32$  18.05$
  Q  0.6645  6.47$  18.15$  10.37$
  Q  0.6645  6.69$  19.4$  9.51$
  Q  -1.3290  6.52$  18.98$  10.24$
  Q  0.6645  9.25$  18.55$  4.33$
  Q  0.6645  9.26$  16.98$  4.04$
  Q  -1.3290  8.97$  17.75$  4.39$
  Q  0.6645  6.3$  15.94$  17.25$
  Q  0.6645  4.94$  16.56$  17.65$
  Q  -1.3290  5.47$  15.96$  17.43$
  Q  0.6645  12.12$  18.93$  16.4$
  Q  0.6645  11.94$  19.59$  17.74$
  Q  -1.3290  12$  18.94$  17.23$
  Q  0.6645  7.69$  3.33$  17.99$
  Q  0.6645  7.28$  2.06$  17.37$
  Q  -1.3290  7.83$  2.58$  17.69$
  Q  0.6645  10.12$  18.93$  7.23$
  Q  0.6645  9.12$  18.22$  6.24$
  Q  -1.3290  9.41$  18.54$  7$
  Q  0.6645  8.37$  11.57$  3.41$
  Q  0.6645  7.81$  12.61$  2.44$
  Q  -1.3290  8.01$  11.83$  2.71$
  Q  0.6645  3.9$  3.13$  9.81$
  Q  0.6645  2.39$  2.92$  10.17$
  Q  -1.3290  3.19$  3.16$  10.31$
  Q  0.6645  16.85$  5.38$  16.49$
  Q  0.6645  17.8$  6.07$  15.55$
  Q  -1.3290  17.44$  5.91$  16.27$
  Q  0.6645  17.27$  9.88$  5.67$
  Q  0.6645  18.57$  10.09$  6.45$
  Q  -1.3290  18.01$  10.24$  5.84$
  Q  0.6645  9.32$  8.37$  17.15$
  Q  0.6645  9.18$  8.92$  18.61$
  Q  -1.3290  9.56$  8.53$  17.97$
  Q  0.6645  17.57$  7.98$  1.94$
  Q  0.6645  17.01$  8.61$  0.68$
  Q  -1.3290  17$  8.4$  1.51$
  Q  0.6645  10.28$  4.54$  0.49$
  Q  0.6645  9.82$  5.96$  0.08$
  Q  -1.3290  9.94$  5.31$  0.58$
  Q  0.6645  6.01$  8.72$  10.81$
  Q  0.6645  6.3$  8.81$  9.39$
  Q  -1.3290  6.23$  8.39$  10.09$
  Q  0.6645  12.69$  12.57$  4.37$
  Q  0.6645  11.77$  13.35$  3.28$
  Q  -1.3290  12.02$  12.71$  3.85$
  Q  0.6645  7.92$  4.59$  5.89$
  Q  0.6645  8.02$  3.75$  4.59$
  Q  -1.3290  8.24$  3.99$  5.38$
  Q  0.6645  15.79$  19.01$  15.72$
  Q  0.6645  16$  20.54$  15.42$
  Q  -1.3290  16.04$  19.79$  15.86$
  Q  0.6645  14.18$  14.79$  1.14$
  Q  0.6645  15.11$  15.29$  -0.05$
  Q  -1.3290  14.91$  14.83$  0.65$
  Q  0.6645  15.99$  7.86$  5.41$
  Q  0.6645  14.94$  8.69$  4.51$
  Q  -1.3290  15.62$  8.58$  5.06$
  Q  0.6645  11.07$  19.8$  14.26$
  Q  0.6645  11.22$  18.42$  14.83$
  Q  -1.3290  11.51$  19.15$  14.53$
  Q  0.6645  13.31$  6.77$  16.2$
  Q  0.6645  13.88$  6.43$  14.82$
  Q  -1.3290  13.75$  6.32$  15.63$
  Q  0.6645  15.47$  16.7$  19.5$
  Q  0.6645  16.62$  16.73$  20.49$
  Q  -1.3290  15.9$  16.47$  20.19$
  Q  0.6645  5.78$  10.92$  9.84$
  Q  0.6645  5.25$  10.91$  8.38$
  Q  -1.3290  5.8$  10.73$  9$
  Q  0.6645  16.66$  4.87$  2.46$
  Q  0.6645  16.88$  5.36$  3.92$
  Q  -1.3290  16.49$  4.96$  3.27$
  Q  0.6645  19.02$  12.83$  12.21$
  Q  0.6645  20.15$  13.88$  12.22$
  Q  -1.3290  19.82$  13.11$  12.18$
  Q  0.6645  2.82$  16.43$  13.95$
  Q  0.6645  1.55$  15.6$  14.4$
  Q  -1.3290  2.38$  15.71$  14.16$
  Q  0.6645  10.39$  17.14$  11.28$
  Q  0.6645  11.73$  17$  12.04$
  Q  -1.3290  10.87$  16.95$  11.93$
  Q  0.6645  11.32$  15.51$  21.26$
  Q  0.6645  12.31$  16.3$  20.33$
  Q  -1.3290  12.07$  15.69$  20.86$
  Q  0.6645  16.55$  8.89$  20.08$
  Q  0.6645  17.51$  10.17$  20.03$
  Q  -1.3290  17.12$  9.46$  20.36$
  Q  0.6645  0.43$  11.64$  9.21$
  Q  0.6645  1.76$  11.42$  8.56$
  Q  -1.3290  1.23$  11.44$  9.21$
  Q  0.6645  8.04$  15.1$  3.32$
  Q  0.6645  9.25$  15.07$  2.39$
  Q  -1.3290  8.83$  15.24$  3.1$
  Q  0.6645  4.92$  6.63$  5.34$
  Q  0.6645  3.48$  6.94$  5.2$
  Q  -1.3290  4.24$  6.74$  4.91$
  Q  0.6645  17.3$  11.28$  17.66$
  Q  0.6645  16.54$  10.53$  16.48$
  Q  -1.3290  16.79$  11.2$  16.97$
  Q  0.6645  14.65$  5.41$  8.28$
  Q  0.6645  15.21$  6.56$  9.05$
  Q  -1.3290  14.63$  6.17$  8.58$
  Q  0.6645  7.81$  11.21$  0.94$
  Q  0.6645  7.86$  10.54$  -0.58$
  Q  -1.3290  7.6$  11.08$  0.09$
  Q  0.6645  10.9$  1.52$  7.14$
  Q  0.6645  12.25$  1.39$  6.31$
  Q  -1.3290  11.5$  1.15$  6.67$
  Q  0.6645  4.08$  12.32$  7.5$
  Q  0.6645  3.49$  11.06$  6.98$
  Q  -1.3290  3.65$  11.62$  7.58$
  Q  0.6645  5.68$  4.55$  8.81$
  Q  0.6645  5.39$  3.38$  7.83$
  Q  -1.3290  5.48$  3.74$  8.58$
  Q  0.6645  8.05$  6.08$  15.09$
  Q  0.6645  7.71$  5.02$  14.12$
  Q  -1.3290  8.19$  5.6$  14.45$
  Q  0.6645  3.67$  8.8$  2.49$
  Q  0.6645  3.09$  8.95$  1.06$
  Q  -1.3290  3.03$  8.89$  1.9$
  Q  0.6645  18.52$  13.75$  3.67$
  Q  0.6645  17.14$  13.91$  4.29$
  Q  -1.3290  17.75$  13.49$  3.89$
  Q  0.6645  11.97$  6.09$  6.31$
  Q  0.6645  11$  5.56$  5.29$
  Q  -1.3290  11.36$  5.58$  6.03$
  Q  0.6645  5.53$  14.9$  3.61$
  Q  0.6645  5.92$  13.45$  3.35$
  Q  -1.3290  6.03$  14.28$  3.39$
  Q  0.6645  11.01$  5.22$  14.63$
  Q  0.6645  12.06$  4.22$  14.24$
  Q  -1.3290  11.3$  4.45$  14.48$
  Q  0.6645  19.28$  16.96$  13.32$
  Q  0.6645  19.34$  17.61$  14.73$
  Q  -1.3290  19.05$  17.5$  13.96$
  Q  0.6645  12.68$  18.41$  13.38$
  Q  0.6645  14.22$  17.97$  13.04$
  Q  -1.3290  13.35$  18.01$  12.95$
  Q  0.6645  3.94$  10.9$  4.59$
  Q  0.6645  4.63$  9.8$  5.3$
  Q  -1.3290  4.01$  10.3$  5.15$
  Q  0.6645  13.08$  0.84$  11.14$
  Q  0.6645  14.62$  1$  10.97$
  Q  -1.3290  13.81$  1.26$  11.04$
  Q  0.6645  14.87$  4.73$  16.51$
  Q  0.6645  15.72$  3.57$  15.8$
  Q  -1.3290  15.5$  4.12$  16.44$
  Q  0.6645  8.14$  18.69$  18.17$
  Q  0.6645  6.85$  18.23$  18.61$
  Q  -1.3290  7.36$  18.79$  18.29$
  Q  0.6645  15.27$  1.62$  14.63$
  Q  0.6645  14.75$  3.02$  14.14$
  Q  -1.3290  15.33$  2.43$  14.41$
  Q  0.6645  8.52$  16.76$  9.9$
  Q  0.6645  9.16$  17.53$  8.67$
  Q  -1.3290  9.12$  17.21$  9.48$
  Q  0.6645  10.11$  3.53$  8.19$
  Q  0.6645  9.2$  3.02$  7.01$
  Q  -1.3290  9.61$  3.02$  7.75$
  Q  0.6645  4.3$  6.61$  8.57$
  Q  0.6645  4.09$  5.34$  7.75$
  Q  -1.3290  4.5$  6.01$  7.99$
  Q  0.6645  7.46$  1.97$  2.91$
  Q  0.6645  6.65$  3.33$  2.74$
  Q  -1.3290  7.35$  2.81$  2.82$
  Q  0.6645  19.67$  9.67$  8.55$
  Q  0.6645  19.37$  9.52$  10.07$
  Q  -1.3290  19.35$  9.9$  9.3$
  Q  0.6645  6.23$  14.47$  8.02$
  Q  0.6645  7.78$  14.32$  8.46$
  Q  -1.3290  7.03$  14.74$  8.27$
  Q  0.6645  18.06$  4.6$  7.52$
  Q  0.6645  17.75$  3.26$  6.94$
  Q  -1.3290  17.9$  4.08$  6.92$
  Q  0.6645  19.07$  14.41$  9.21$
  Q  0.6645  17.99$  15.41$  9.31$
  Q  -1.3290  18.76$  15.13$  9.44$
  Q  0.6645  18.29$  6.99$  5.51$
  Q  0.6645  17.5$  5.84$  6.08$
  Q  -1.3290  17.61$  6.53$  5.6$
  Q  0.6645  12.72$  7.57$  1.79$
  Q  0.6645  11.38$  7.19$  1.28$
  Q  -1.3290  12.03$  7.1$  1.77$
  Q  0.6645  12.2$  14.08$  19.66$
  Q  0.6645  11.89$  13$  18.55$
  Q  -1.3290  12.36$  13.55$  18.98$
  Q  0.6645  4.84$  11.69$  1.97$
  Q  0.6645  5.98$  11.28$  2.78$
  Q  -1.3290  5.27$  11.69$  2.65$
  Q  0.6645  10.4$  5.42$  16.94$
  Q  0.6645  10.71$  4.25$  17.81$
  Q  -1.3290  10.6$  5.06$  17.66$
  Q  0.6645  18.54$  15.82$  17.69$
  Q  0.6645  20.01$  16.47$  17.6$
  Q  -1.3290  19.31$  16.11$  17.98$
  Q  0.6645  7.6$  7.05$  17.51$
  Q  0.6645  7.03$  8.17$  16.62$
  Q  -1.3290  7.29$  7.37$  16.78$
  Q  0.6645  6.32$  5.87$  1.22$
  Q  0.6645  7.88$  5.46$  1.02$
  Q  -1.3290  7.03$  5.55$  0.84$
  Q  0.6645  15.1$  8.63$  2.02$
  Q  0.6645  13.88$  9.64$  2.02$
  Q  -1.3290  14.29$  8.89$  2.21$
  Q  0.6645  13.77$  3.34$  7.46$
  Q  0.6645  14.03$  2.57$  8.74$
  Q  -1.3290  13.94$  3.25$  8.26$
  Q  0.6645  0.68$  10.89$  11.21$
  Q  0.6645  0.45$  11.27$  12.62$
  Q  -1.3290  0.62$  10.72$  11.99$
  Q  0.6645  4.47$  12.12$  16.58$
  Q  0.6645  5.24$  12.62$  17.81$
  Q  -1.3290  4.88$  12.06$  17.31$
  Q  0.6645  2.15$  12.81$  10.14$
  Q  0.6645  1.89$  14.1$  10.95$
  Q  -1.3290  2.33$  13.42$  10.72$
  Q  0.6645  3.51$  7.26$  12.63$
  Q  0.6645  3.08$  5.87$  13.04$
  Q  -1.3290  3.45$  6.61$  13.15$
  Q  0.6645  13.44$  11.5$  1.13$
  Q  0.6645  12.44$  11.55$  2.22$
  Q  -1.3290  12.8$  11.22$  1.57$
  Q  0.6645  6.59$  8.27$  5.54$
  Q  0.6645  6.91$  8.82$  4.16$
  Q  -1.3290  6.56$  8.84$  4.91$
  Q  0.6645  12.83$  4.95$  2.31$
  Q  0.6645  14.28$  4.93$  2.72$
  Q  -1.3290  13.55$  4.58$  2.48$
  Q  0.6645  6.98$  4.1$  11.03$
  Q  0.6645  7.73$  2.83$  10.92$
  Q  -1.3290  7.65$  3.64$  11.12$
  Q  0.6645  9.06$  14.53$  4.98$
  Q  0.6645  8.48$  14.24$  6.28$
  Q  -1.3290  9.12$  14.45$  5.77$
  Q  0.6645  10.96$  16.95$  2.9$
  Q  0.6645  11.97$  17.57$  1.87$
  Q  -1.3290  11.19$  17.34$  2.16$
  Q  0.6645  11.95$  7.69$  20.48$
  Q  0.6645  10.46$  7.3$  20.14$
  Q  -1.3290  11.1$  7.67$  20.59$
  Q  0.6645  15.66$  11.79$  1.36$
  Q  0.6645  15.02$  13.06$  0.53$
  Q  -1.3290  15.19$  12.21$  0.75$
  Q  0.6645  5.55$  6.88$  16.46$
  Q  0.6645  4.55$  6.52$  15.33$
  Q  -1.3290  4.79$  6.86$  16.06$
  Q  0.6645  19.59$  6.27$  14.64$
  Q  0.6645  19$  7.74$  14.16$
  Q  -1.3290  19.02$  6.89$  14.37$
  Q  0.6645  13.41$  3.47$  4.97$
  Q  0.6645  12.36$  4.01$  5.91$
  Q  -1.3290  12.94$  3.47$  5.65$
  Q  0.6645  8.5$  5.38$  20.15$
  Q  0.6645  9.56$  5.74$  19.15$
  Q  -1.3290  8.94$  5.92$  19.74$
  Q  0.6645  5.72$  6.38$  10.7$
  Q  0.6645  4.61$  5.32$  10.74$
  Q  -1.3290  5.38$  5.6$  10.88$
  Q  0.6645  7.33$  8.55$  20.02$
  Q  0.6645  7.43$  9.57$  18.94$
  Q  -1.3290  7.67$  9.17$  19.65$
  Q  0.6645  17.06$  18.05$  13.25$
  Q  0.6645  16.3$  18.09$  11.87$
  Q  -1.3290  16.45$  18.26$  12.7$
  Q  0.6645  9.76$  2.24$  16.91$
  Q  0.6645  10.61$  2.89$  15.75$
  Q  -1.3290  10.45$  2.39$  16.43$
  Q  0.6645  9.89$  18.18$  19.36$
  Q  0.6645  10.62$  18.08$  18$
  Q  -1.3290  10.01$  17.9$  18.55$
  Q  0.6645  12.97$  18.78$  11.26$
  Q  0.6645  12.49$  17.94$  10.07$
  Q  -1.3290  12.73$  18.66$  10.45$
  Q  0.6645  19.98$  8.38$  12.46$
  Q  0.6645  20.82$  9.27$  11.61$
  Q  -1.3290  20.33$  8.62$  11.75$
  Q  0.6645  13.48$  2.66$  12.44$
  Q  0.6645  13.37$  4.18$  12.1$
  Q  -1.3290  13.39$  3.5$  12.62$
  Q  0.6645  12.56$  17.34$  6.39$
  Q  0.6645  12.81$  18.7$  6.92$
  Q  -1.3290  13.02$  17.95$  6.65$
  Q  0.6645  17.04$  4.37$  12.41$
  Q  0.6645  17.61$  5.6$  13.12$
  Q  -1.3290  17.1$  5.22$  12.57$
*
