! NoMOPrint PrintBasis #MINIPRINT SMALLPRINT LARGEPRINT
! ALLPOP XYZFILE
#! BP86 3-21G   TightSCF
! ENGRAD
! B3LYP NormalPNO PModel #DecontractAux
#! VerySlowConv 
 %maxcore 5000
 %scf  maxiter   500  end 

%pal
    nprocs 32
end

%basis
    NewGTO O    # New basis for oxygen
        "aug-cc-pVTZ"
    end
    NewGTO C    # New basis for carbon
        "aug-cc-pVTZ"
    end
    NewGTO H    # New basis for hydrogen
        "cc-pVTZ"
    end
end

* xyz 0   1
  C  9.38  11.24  11.64  #1
  H  8.35  11.46  11.63  #2
  H  9.83  11.79  12.48  #3
  C  9.96  11.62  10.3  #4
  H  9.86  10.88  9.58  #5
  H  9.32  12.35  9.89  #6
  C  11.42  11.99  10.34  #7
  H  11.85  12.65  11.14  #8
  H  11.59  12.42  9.36  #9
  C  12.35  10.74  10.27  #10
  H  13.4  10.94  10.5  #11
  H  12.29  10.28  9.27  #12
  O  11.92  9.76  11.32  #13
  H  12.59  9.09  11.34  #14
  O  9.45  9.76  11.89  #15
  H  10.38  9.47  11.76  #16
  O  14.59  8.1  11.45  #17
  H  14.7  7.95  10.5  #18
  H  14.26  7.23  11.79  #19
  O  15.02  11.4  8.61  #20
  H  15.5  11.23  7.75  #21
  H  15.72  11.32  9.24  #22
  O  13.58  13.97  8.6  #23
  H  14.21  13.25  8.7  #24
  H  13.39  13.96  7.71  #25
  O  10.89  12.56  14.3  #26
  H  11.65  12.89  13.82  #27
  H  10.19  13.19  14.15  #28
  O  12.22  8.73  14.53  #29
  H  11.94  9.18  13.74  #30
  H  11.55  9.16  15.12  #31
  O  14.83  8.2  8.67  #32
  H  15.32  9.04  8.54  #33
  H  14.05  8.18  8.1  #34
  O  12.94  14.91  13.2  #35
  H  12.94  15.29  12.32  #36
  H  13.84  14.63  13.39  #37
  O  7.31  10.74  15.18  #38
  H  7.66  10.79  14.27  #39
  H  7.92  11.21  15.77  #40
  O  10.05  10.43  15.98  #41
  H  10.14  10.59  16.93  #42
  H  10.27  11.22  15.51  #43
  O  15.33  5.28  8.15  #44
  H  15.7  6.13  8.18  #45
  H  14.47  5.27  8.61  #46
  O  16.77  12.2  11.09  #47
  H  17.46  11.56  11.37  #48
  H  16.29  12.34  11.99  #49
  O  16.26  14.84  7.1  #50
  H  15.48  14.39  6.78  #51
  H  16.49  14.32  7.85  #52
  O  15.02  12.13  5.67  #53
  H  14.15  11.75  5.9  #54
  H  15.56  11.35  5.39  #55
  O  10.71  13.81  17.14  #56
  H  9.79  13.61  17.19  #57
  H  11.04  13.23  16.43  #58
  O  8.34  14.22  14.89  #59
  H  7.41  14.24  14.64  #60
  H  8.75  14.98  14.49  #61
  O  11.81  16.71  7.7  #62
  H  11.78  16.63  6.73  #63
  H  12.39  16.08  8.09  #64
  O  16.93  10.23  6.79  #65
  H  17.24  10.26  7.69  #66
  H  16.91  9.29  6.49  #67
  O  17.91  10.06  9.57  #68
  H  18.74  10.48  9.43  #69
  H  18.12  9.53  10.32  #70
  O  8.84  8.12  14.34  #71
  H  8.44  8.54  15.14  #72
  H  9.09  8.85  13.78  #73
  O  11.64  6.28  11.17  #74
  H  12.06  6.34  12.07  #75
  H  10.7  6.57  11.34  #76
  O  15.7  9.76  13.1  #77
  H  15.28  9.27  12.35  #78
  H  15.11  10.51  13.38  #79
  O  12.12  5.89  8.53  #80
  H  12.01  6.78  8.12  #81
  H  11.93  6.07  9.48  #82
  O  6.6  10.29  9.61  #83
  H  7.3  9.66  9.76  #84
  H  6.74  10.85  8.82  #85
  O  13.87  11.63  14.7  #86
  H  14.2  11.42  15.54  #87
  H  13.2  11.01  14.47  #88
  O  11.98  15.25  10.43  #89
  H  12.63  14.71  9.98  #90
  H  11.12  15.03  10.08  #91
  O  8.64  8.53  9.22  #92
  H  8.89  8.43  10.13  #93
  H  8.1  7.8  9  #94
  O  12.51  8.09  6.9  #95
  H  12.88  8.01  6.02  #96
  H  11.85  8.79  6.87  #97
  O  13.48  14.54  5.9  #98
  H  13.93  15.44  5.84  #99
  H  13.81  13.9  5.28  #100
  O  5.53  12.52  10.87  #101
  H  6.09  11.81  10.53  #102
  H  5.84  13.38  10.52  #103
  O  12.93  6.41  13.47  #104
  H  13.76  6.09  13.89  #105
  H  12.69  7.27  14.02  #106
  Q  0.6645  19.3$  16.17$  12.26$
  Q  0.6645  17.78$  16.16$  12.41$
  Q  -1.3290  18.53$  15.87$  12.17$
  Q  0.6645  8.04$  17.34$  5.97$
  Q  0.6645  6.69$  17.68$  6.53$
  Q  -1.3290  7.42$  17.87$  6.17$
  Q  0.6645  3.82$  13.38$  5.03$
  Q  0.6645  4.23$  12.16$  5.71$
  Q  -1.3290  4.36$  12.88$  5.34$
  Q  0.6645  4.74$  14.04$  13.99$
  Q  0.6645  5.8$  14.69$  13.16$
  Q  -1.3290  5.5$  14.36$  13.85$
  Q  0.6645  14.86$  17.33$  10.66$
  Q  0.6645  14.11$  18.2$  11.93$
  Q  -1.3290  14.36$  17.49$  11.41$
  Q  0.6645  9.69$  5.53$  4.49$
  Q  0.6645  9.26$  4.78$  5.63$
  Q  -1.3290  9.16$  5.07$  4.89$
  Q  0.6645  9.31$  14.89$  20.35$
  Q  0.6645  8.97$  15.99$  19.32$
  Q  -1.3290  8.92$  15.57$  20.05$
  Q  0.6645  5.79$  10.23$  18.61$
  Q  0.6645  6.97$  10.4$  17.55$
  Q  -1.3290  6.42$  9.99$  18.06$
  Q  0.6645  8.4$  4.97$  18.26$
  Q  0.6645  9.4$  5.69$  17.44$
  Q  -1.3290  9$  5.52$  18.15$
  Q  0.6645  13.5$  10.12$  19.19$
  Q  0.6645  12.65$  9.77$  18.07$
  Q  -1.3290  13.2$  10.25$  18.45$
  Q  0.6645  9.38$  15.47$  16.94$
  Q  0.6645  8.09$  15.94$  16.67$
  Q  -1.3290  8.79$  15.93$  17.11$
  Q  0.6645  18.21$  3.49$  8.93$
  Q  0.6645  16.59$  3.85$  8.68$
  Q  -1.3290  17.32$  3.4$  9$
  Q  0.6645  14.5$  16.58$  3.49$
  Q  0.6645  13.93$  15.17$  3.19$
  Q  -1.3290  14.04$  16.01$  3.09$
  Q  0.6645  13.39$  2.54$  16.13$
  Q  0.6645  12.41$  2.35$  15.11$
  Q  -1.3290  13.11$  2.15$  15.49$
  Q  0.6645  15.9$  4.75$  13.63$
  Q  0.6645  16.41$  5.97$  12.95$
  Q  -1.3290  15.85$  5.5$  13.33$
  Q  0.6645  6.16$  6.5$  1.46$
  Q  0.6645  6.03$  8.04$  2.21$
  Q  -1.3290  6.26$  7.4$  1.6$
  Q  0.6645  12.75$  0.74$  13.69$
  Q  0.6645  11.65$  0.62$  12.69$
  Q  -1.3290  12.26$  0.32$  13.16$
  Q  0.6645  2.64$  6.33$  7.64$
  Q  0.6645  3.82$  7.32$  7.98$
  Q  -1.3290  3.43$  6.57$  7.89$
  Q  0.6645  17.44$  6.02$  3.03$
  Q  0.6645  18.62$  6.91$  2.86$
  Q  -1.3290  17.94$  6.66$  3.24$
  Q  0.6645  13.4$  4.38$  17.55$
  Q  0.6645  13.46$  3.88$  19.01$
  Q  -1.3290  13.45$  3.8$  18.16$
  Q  0.6645  14.6$  17.18$  16.19$
  Q  0.6645  16.07$  16.68$  16.52$
  Q  -1.3290  15.35$  16.79$  16.07$
  Q  0.6645  17.2$  3.63$  11.12$
  Q  0.6645  17.3$  3$  12.41$
  Q  -1.3290  17.59$  3.47$  11.82$
  Q  0.6645  1.79$  7.96$  8.79$
  Q  0.6645  0.3$  7.82$  8.64$
  Q  -1.3290  1.08$  7.95$  8.36$
  Q  0.6645  19.13$  9.33$  5.8$
  Q  0.6645  19.64$  10.71$  5.51$
  Q  -1.3290  19.51$  9.87$  5.35$
  Q  0.6645  2.64$  8.78$  14.66$
  Q  0.6645  1.3$  8.31$  14.25$
  Q  -1.3290  1.82$  8.85$  14.55$
  Q  0.6645  8.55$  18.81$  8.88$
  Q  0.6645  8.09$  18.53$  10.31$
  Q  -1.3290  8.13$  18.39$  9.48$
  Q  0.6645  19.62$  7.27$  8.07$
  Q  0.6645  19.88$  8.69$  8.57$
  Q  -1.3290  19.96$  8.03$  8.03$
  Q  0.6645  6.77$  16.64$  13.56$
  Q  0.6645  7.16$  17.54$  14.88$
  Q  -1.3290  7.26$  17.2$  14.07$
  Q  0.6645  11.35$  14.53$  1.9$
  Q  0.6645  10.64$  14.23$  0.55$
  Q  -1.3290  10.76$  14.58$  1.32$
  Q  0.6645  9.55$  1.72$  16.73$
  Q  0.6645  8.83$  1.39$  15.43$
  Q  -1.3290  9.13$  1.91$  16.03$
  Q  0.6645  7.27$  13.16$  7.04$
  Q  0.6645  6.05$  12.4$  6.87$
  Q  -1.3290  6.87$  12.46$  6.9$
  Q  0.6645  18.4$  10.88$  13.51$
  Q  0.6645  17.49$  9.9$  12.8$
  Q  -1.3290  18.23$  10.23$  13.01$
  Q  0.6645  10.39$  5.21$  7.73$
  Q  0.6645  9.12$  4.3$  7.86$
  Q  -1.3290  9.63$  4.91$  7.51$
  Q  0.6645  17.86$  6.86$  16.84$
  Q  0.6645  16.74$  7.87$  16.53$
  Q  -1.3290  17.3$  7.47$  16.99$
  Q  0.6645  2.79$  9.94$  6.14$
  Q  0.6645  3.46$  10.34$  4.77$
  Q  -1.3290  3.37$  10.31$  5.65$
  Q  0.6645  2.96$  10.26$  11.79$
  Q  0.6645  2.38$  8.88$  11.28$
  Q  -1.3290  2.43$  9.73$  11.38$
  Q  0.6645  5.09$  13$  2.1$
  Q  0.6645  6.39$  13.59$  2.66$
  Q  -1.3290  5.91$  13.15$  2.1$
  Q  0.6645  11.94$  13.41$  18.3$
  Q  0.6645  12.61$  12.23$  18.92$
  Q  -1.3290  12.4$  13.03$  18.89$
  Q  0.6645  10.42$  1.78$  11.4$
  Q  0.6645  9.49$  0.98$  12.34$
  Q  -1.3290  10.03$  1.1$  11.7$
  Q  0.6645  5.5$  17.38$  3.44$
  Q  0.6645  4.88$  16.44$  2.36$
  Q  -1.3290  5.03$  16.73$  3.18$
  Q  0.6645  7.24$  14.46$  19.65$
  Q  0.6645  6.19$  13.44$  20$
  Q  -1.3290  6.59$  13.98$  19.51$
  Q  0.6645  3.82$  11.48$  8.21$
  Q  0.6645  4.67$  12.28$  9.07$
  Q  -1.3290  4.38$  12.07$  8.36$
  Q  0.6645  5.9$  21.59$  10.01$
  Q  0.6645  7.17$  20.9$  9.66$
  Q  -1.3290  6.39$  21.13$  9.54$
  Q  0.6645  19.16$  7.27$  14.25$
  Q  0.6645  19.19$  8.65$  13.61$
  Q  -1.3290  19.48$  8.01$  14.09$
  Q  0.6645  18.6$  17.89$  7.85$
  Q  0.6645  18.97$  18.9$  8.95$
  Q  -1.3290  18.47$  18.37$  8.51$
  Q  0.6645  4.9$  11.52$  12.27$
  Q  0.6645  4.66$  10.74$  13.72$
  Q  -1.3290  4.62$  10.9$  12.85$
  Q  0.6645  14.09$  6.31$  4.54$
  Q  0.6645  14.38$  7.84$  4.07$
  Q  -1.3290  13.92$  7.1$  4.25$
  Q  0.6645  9.02$  19.32$  16.68$
  Q  0.6645  9.62$  17.89$  16.62$
  Q  -1.3290  9.56$  18.7$  16.39$
  Q  0.6645  6.41$  13.78$  4.78$
  Q  0.6645  6.11$  15.02$  4.06$
  Q  -1.3290  6.63$  14.46$  4.34$
  Q  0.6645  6.96$  3.44$  11.54$
  Q  0.6645  6.3$  4.4$  10.65$
  Q  -1.3290  6.85$  3.79$  10.82$
  Q  0.6645  2.78$  12.56$  14.51$
  Q  0.6645  2.76$  13.23$  13.22$
  Q  -1.3290  2.91$  13.2$  14.03$
  Q  0.6645  10.29$  6.54$  15.37$
  Q  0.6645  11.3$  5.54$  15.5$
  Q  -1.3290  10.71$  6$  15.8$
  Q  0.6645  15.74$  6.95$  14.55$
  Q  0.6645  15.52$  8.47$  14.43$
  Q  -1.3290  15.62$  7.75$  14.86$
  Q  0.6645  19.68$  14.07$  11.18$
  Q  0.6645  20.36$  12.87$  10.45$
  Q  -1.3290  20.24$  13.45$  11.07$
  Q  0.6645  9.42$  18.92$  11.91$
  Q  0.6645  8.17$  18.53$  12.77$
  Q  -1.3290  8.58$  18.97$  12.14$
  Q  0.6645  13.4$  20.47$  13.05$
  Q  0.6645  14.8$  19.7$  13.14$
  Q  -1.3290  13.94$  19.79$  13.04$
  Q  0.6645  10.38$  19.75$  6.4$
  Q  0.6645  8.85$  19.38$  6.34$
  Q  -1.3290  9.55$  19.83$  6.53$
  Q  0.6645  15.86$  9.75$  3.1$
  Q  0.6645  15.69$  8.4$  2.56$
  Q  -1.3290  15.4$  9.08$  2.95$
  Q  0.6645  13.68$  19.82$  8.68$
  Q  0.6645  14.91$  19$  8.83$
  Q  -1.3290  14.47$  19.68$  8.63$
  Q  0.6645  19.18$  11.49$  17.16$
  Q  0.6645  17.94$  12.14$  17.61$
  Q  -1.3290  18.77$  12.07$  17.58$
  Q  0.6645  7.85$  10.59$  5.79$
  Q  0.6645  8.01$  9.18$  6.38$
  Q  -1.3290  8.02$  9.75$  5.75$
  Q  0.6645  14.29$  1.81$  9.51$
  Q  0.6645  13.04$  2.48$  8.84$
  Q  -1.3290  13.49$  2.16$  9.47$
  Q  0.6645  1.74$  13.23$  7.77$
  Q  0.6645  3.21$  13.51$  7.27$
  Q  -1.3290  2.35$  13.54$  7.24$
  Q  0.6645  11.3$  20.22$  13.72$
  Q  0.6645  10.32$  19.33$  14.65$
  Q  -1.3290  10.84$  19.53$  13.95$
  Q  0.6645  17.98$  15.44$  14.45$
  Q  0.6645  18.22$  14.05$  14.59$
  Q  -1.3290  17.84$  14.73$  14.83$
  Q  0.6645  8.97$  16.66$  3.32$
  Q  0.6645  8.18$  15.85$  4.24$
  Q  -1.3290  8.73$  16.45$  4.05$
  Q  0.6645  16$  13.98$  13.87$
  Q  0.6645  14.96$  12.94$  14.34$
  Q  -1.3290  15.42$  13.38$  13.75$
  Q  0.6645  1.27$  14.94$  11.23$
  Q  0.6645  0.51$  13.68$  11.65$
  Q  -1.3290  1.19$  14.13$  11.52$
  Q  0.6645  18.61$  9.45$  16.92$
  Q  0.6645  19.56$  9.37$  15.73$
  Q  -1.3290  19.33$  9.58$  16.51$
  Q  0.6645  12.45$  4.15$  7.54$
  Q  0.6645  12.15$  2.96$  6.55$
  Q  -1.3290  12.6$  3.38$  7.13$
  Q  0.6645  1.59$  12.76$  9.87$
  Q  0.6645  1.86$  11.3$  9.74$
  Q  -1.3290  1.54$  12.03$  9.51$
  Q  0.6645  10.15$  7.66$  0.88$
  Q  0.6645  11.09$  6.47$  0.49$
  Q  -1.3290  10.84$  7.17$  0.91$
  Q  0.6645  10.73$  16.94$  14.04$
  Q  0.6645  11.65$  15.63$  14.12$
  Q  -1.3290  10.93$  16.12$  14.19$
  Q  0.6645  4.85$  6.9$  4.23$
  Q  0.6645  4.45$  8.41$  4.04$
  Q  -1.3290  4.33$  7.56$  4.05$
  Q  0.6645  7.95$  8.49$  18.63$
  Q  0.6645  8.89$  7.31$  19$
  Q  -1.3290  8.55$  8.08$  19.07$
  Q  0.6645  7.66$  12.65$  18.15$
  Q  0.6645  9.04$  11.87$  18.07$
  Q  -1.3290  8.32$  12.25$  17.77$
  Q  0.6645  10.53$  12.42$  2.2$
  Q  0.6645  10.97$  11.13$  3.08$
  Q  -1.3290  10.84$  11.98$  2.89$
  Q  0.6645  17.67$  12.89$  4.66$
  Q  0.6645  17.33$  14.07$  5.69$
  Q  -1.3290  17.8$  13.63$  5.12$
  Q  0.6645  6.65$  6.85$  6.63$
  Q  0.6645  8.05$  6.42$  6.94$
  Q  -1.3290  7.39$  6.94$  7.03$
  Q  0.6645  12.07$  16$  16.59$
  Q  0.6645  12.01$  16.78$  17.84$
  Q  -1.3290  12.3$  16.59$  17.11$
  Q  0.6645  12.89$  3.68$  2.31$
  Q  0.6645  13.81$  3.51$  3.61$
  Q  -1.3290  13.47$  3.34$  2.86$
  Q  0.6645  3.71$  11.8$  18.61$
  Q  0.6645  3.12$  10.44$  18.47$
  Q  -1.3290  3.64$  11.01$  18.8$
  Q  0.6645  5.92$  19.47$  10.61$
  Q  0.6645  5.48$  19.25$  11.98$
  Q  -1.3290  5.46$  19.09$  11.19$
  Q  0.6645  4.53$  19.86$  13.91$
  Q  0.6645  5.87$  19.5$  14.41$
  Q  -1.3290  5.37$  19.86$  13.9$
  Q  0.6645  15.41$  4.83$  5.72$
  Q  0.6645  15.63$  4.55$  4.24$
  Q  -1.3290  15.18$  4.67$  4.9$
  Q  0.6645  18.08$  10.76$  3.93$
  Q  0.6645  17.28$  11.56$  2.87$
  Q  -1.3290  17.43$  11.2$  3.64$
  Q  0.6645  16.86$  18.65$  13.3$
  Q  0.6645  16.61$  19.96$  14.16$
  Q  -1.3290  16.79$  19.49$  13.44$
  Q  0.6645  15.29$  10.94$  17.66$
  Q  0.6645  15.53$  12.41$  17.29$
  Q  -1.3290  15.59$  11.58$  17.19$
  Q  0.6645  3.95$  2.37$  8.44$
  Q  0.6645  4.54$  3.66$  9.19$
  Q  -1.3290  4.03$  3$  9.06$
  Q  0.6645  16.81$  17.57$  9.34$
  Q  0.6645  16.1$  16.32$  8.91$
  Q  -1.3290  16.14$  17.1$  9.24$
  Q  0.6645  6.27$  15.72$  11.29$
  Q  0.6645  5.73$  17.11$  11.52$
  Q  -1.3290  5.91$  16.32$  11.74$
  Q  0.6645  11.07$  11$  19.45$
  Q  0.6645  10.3$  9.76$  19.02$
  Q  -1.3290  10.56$  10.57$  18.95$
  Q  0.6645  3.61$  6$  13.31$
  Q  0.6645  3.11$  4.42$  13.32$
  Q  -1.3290  3.32$  5.22$  12.98$
  Q  0.6645  1.98$  8.92$  16.62$
  Q  0.6645  2.46$  8.02$  17.62$
  Q  -1.3290  2.27$  8.77$  17.36$
  Q  0.6645  5.53$  18.33$  16.47$
  Q  0.6645  6.67$  19.27$  16.76$
  Q  -1.3290  6.24$  18.71$  16.27$
  Q  0.6645  1.58$  16.98$  15.1$
  Q  0.6645  2.97$  17$  15.72$
  Q  -1.3290  2.34$  17.31$  15.24$
  Q  0.6645  4.58$  10.34$  16.31$
  Q  0.6645  5.55$  11.3$  15.56$
  Q  -1.3290  4.79$  10.99$  15.83$
  Q  0.6645  7.74$  14.94$  9.43$
  Q  0.6645  6.37$  15.49$  9.21$
  Q  -1.3290  6.92$  15.03$  9.64$
  Q  0.6645  16.19$  19.73$  16.37$
  Q  0.6645  14.64$  19.52$  15.99$
  Q  -1.3290  15.48$  19.77$  15.9$
  Q  0.6645  12.14$  16.57$  4.27$
  Q  0.6645  10.67$  16.52$  4.43$
  Q  -1.3290  11.46$  16.51$  4.7$
  Q  0.6645  8.57$  5.76$  11.24$
  Q  0.6645  8.49$  6.75$  12.42$
  Q  -1.3290  8.57$  6.53$  11.62$
  Q  0.6645  8$  3.06$  16.76$
  Q  0.6645  7.37$  2.47$  17.87$
  Q  -1.3290  7.48$  3.12$  17.37$
  Q  0.6645  11.42$  19.34$  9.51$
  Q  0.6645  11.86$  18.58$  8.43$
  Q  -1.3290  11.69$  19.27$  8.79$
  Q  0.6645  6.2$  17.83$  8.51$
  Q  0.6645  4.69$  17.68$  8.48$
  Q  -1.3290  5.48$  17.52$  8.24$
  Q  0.6645  19.16$  15.1$  8.52$
  Q  0.6645  19.61$  15.21$  7.06$
  Q  -1.3290  19.71$  15.09$  7.87$
  Q  0.6645  11.55$  17.49$  10.86$
  Q  0.6645  11.53$  18.42$  11.94$
  Q  -1.3290  11.35$  18.19$  11.2$
  Q  0.6645  21.81$  11.83$  15.59$
  Q  0.6645  22.26$  10.51$  15.02$
  Q  -1.3290  21.81$  11.21$  15.01$
  Q  0.6645  4.42$  16.24$  17.65$
  Q  0.6645  4.67$  15.49$  16.37$
  Q  -1.3290  4.51$  16.15$  16.84$
  Q  0.6645  8.74$  15.06$  7.45$
  Q  0.6645  8.91$  14.33$  6.23$
  Q  -1.3290  8.46$  14.66$  6.81$
  Q  0.6645  7.11$  18.58$  4.21$
  Q  0.6645  5.93$  19.44$  3.69$
  Q  -1.3290  6.57$  18.88$  3.63$
  Q  0.6645  12.49$  18.04$  15.65$
  Q  0.6645  13.11$  18.77$  14.47$
  Q  -1.3290  12.93$  18.64$  15.29$
  Q  0.6645  12.3$  8.23$  1.01$
  Q  0.6645  13.59$  9.02$  1.55$
  Q  -1.3290  12.97$  8.83$  1.01$
  Q  0.6645  21.45$  10.64$  13.16$
  Q  0.6645  22.4$  10.11$  12.05$
  Q  -1.3290  21.65$  10.23$  12.42$
  Q  0.6645  3.81$  17.01$  12.26$
  Q  0.6645  2.84$  16.81$  13.38$
  Q  -1.3290  3.07$  16.94$  12.59$
  Q  0.6645  17.91$  7.11$  6.21$
  Q  0.6645  17.62$  7.57$  4.79$
  Q  -1.3290  17.59$  7.62$  5.65$
  Q  0.6645  5.33$  9.05$  11.63$
  Q  0.6645  6.39$  8.02$  11.35$
  Q  -1.3290  5.73$  8.31$  11.75$
  Q  0.6645  4.2$  12.64$  16.7$
  Q  0.6645  4.94$  13.72$  17.72$
  Q  -1.3290  4.28$  13.25$  17.33$
  Q  0.6645  4.47$  5.75$  11.02$
  Q  0.6645  4.61$  6.02$  9.51$
  Q  -1.3290  4.79$  5.66$  10.25$
  Q  0.6645  14.71$  15.06$  17.52$
  Q  0.6645  14.05$  14.14$  18.41$
  Q  -1.3290  14.65$  14.34$  17.9$
  Q  0.6645  12$  10.61$  5.4$
  Q  0.6645  11.64$  11.91$  5.94$
  Q  -1.3290  12.17$  11.3$  5.77$
  Q  0.6645  2.76$  18.92$  8.89$
  Q  0.6645  2.07$  17.53$  8.29$
  Q  -1.3290  2.62$  18.23$  8.34$
  Q  0.6645  12.59$  7.65$  18.66$
  Q  0.6645  11.58$  7.27$  17.52$
  Q  -1.3290  12.09$  7.77$  17.98$
  Q  0.6645  0.09$  15.48$  13.94$
  Q  0.6645  1.44$  14.71$  14.26$
  Q  -1.3290  0.74$  15.18$  14.42$
  Q  0.6645  9.59$  21.96$  9.82$
  Q  0.6645  9.8$  21.01$  8.59$
  Q  -1.3290  9.37$  21.54$  9.13$
  Q  0.6645  5.66$  6.88$  17.11$
  Q  0.6645  5.76$  8.4$  17.27$
  Q  -1.3290  5.55$  7.68$  16.86$
  Q  0.6645  11.73$  4.29$  11.41$
  Q  0.6645  12.32$  2.96$  10.86$
  Q  -1.3290  11.78$  3.44$  11.34$
  Q  0.6645  10.95$  3.9$  13.64$
  Q  0.6645  10.3$  3.28$  15.06$
  Q  -1.3290  10.88$  3.71$  14.51$
  Q  0.6645  14.43$  7.94$  19.97$
  Q  0.6645  13.58$  8.09$  21.14$
  Q  -1.3290  13.76$  7.76$  20.39$
  Q  0.6645  21.16$  11.11$  9.43$
  Q  0.6645  20.48$  11.74$  8.27$
  Q  -1.3290  20.51$  11.42$  9.05$
  Q  0.6645  20.16$  8.8$  11.32$
  Q  0.6645  20.61$  7.68$  10.47$
  Q  -1.3290  20.02$  8.22$  10.76$
  Q  0.6645  15.18$  4.86$  16$
  Q  0.6645  14.45$  6.32$  16.02$
  Q  -1.3290  14.52$  5.46$  15.99$
  Q  0.6645  17.83$  14.95$  10.34$
  Q  0.6645  17.55$  13.53$  10.05$
  Q  -1.3290  17.71$  14.29$  9.83$
  Q  0.6645  5.56$  9.25$  8.46$
  Q  0.6645  4.74$  9.39$  7.09$
  Q  -1.3290  4.93$  9.09$  7.91$
  Q  0.6645  11.27$  13.98$  5.2$
  Q  0.6645  10.3$  13.05$  4.45$
  Q  -1.3290  10.55$  13.56$  5.08$
  Q  0.6645  14.21$  1.74$  11.86$
  Q  0.6645  13.7$  2.77$  12.73$
  Q  -1.3290  14.29$  2.29$  12.44$
  Q  0.6645  10.65$  8.58$  4.12$
  Q  0.6645  9.74$  9.68$  4.35$
  Q  -1.3290  10.47$  9.37$  4.19$
  Q  0.6645  15.46$  2.35$  13.8$
  Q  0.6645  15.61$  2.3$  15.33$
  Q  -1.3290  15.83$  2.52$  14.52$
  Q  0.6645  19.36$  12.74$  6.15$
  Q  0.6645  20.83$  12.37$  5.86$
  Q  -1.3290  20.09$  12.25$  6.22$
  Q  0.6645  10.1$  16.46$  8.69$
  Q  0.6645  8.65$  16.59$  9.31$
  Q  -1.3290  9.37$  16.18$  9.07$
  Q  0.6645  4.66$  7.75$  15$
  Q  0.6645  4.8$  7.82$  13.58$
  Q  -1.3290  4.35$  7.78$  14.25$
  Q  0.6645  7.74$  2.84$  8.98$
  Q  0.6645  8.47$  1.66$  8.28$
  Q  -1.3290  8.21$  2.46$  8.37$
  Q  0.6645  -0.54$  7.51$  13.14$
  Q  0.6645  0.86$  7.1$  12.42$
  Q  -1.3290  0.16$  7.01$  12.93$
  Q  0.6645  18.28$  5.28$  12.4$
  Q  0.6645  18.83$  6.67$  12.24$
  Q  -1.3290  18.32$  6.11$  12.57$
  Q  0.6645  18.68$  14.06$  18.09$
  Q  0.6645  17.8$  14.9$  17.01$
  Q  -1.3290  18.21$  14.7$  17.79$
  Q  0.6645  13.81$  12.93$  2.35$
  Q  0.6645  12.54$  12.77$  3.21$
  Q  -1.3290  13.29$  13.1$  2.97$
  Q  0.6645  15.09$  1.34$  6.78$
  Q  0.6645  14.72$  2.81$  7$
  Q  -1.3290  15.2$  2.16$  6.89$
  Q  0.6645  19.14$  5.63$  6.3$
  Q  0.6645  19.36$  4.97$  7.69$
  Q  -1.3290  19.03$  5.54$  7.14$
  Q  0.6645  20.17$  12.29$  14.05$
  Q  0.6645  19.41$  12.98$  13.03$
  Q  -1.3290  19.47$  12.57$  13.72$
  Q  0.6645  15.89$  16.78$  14.1$
  Q  0.6645  15.72$  16.89$  12.54$
  Q  -1.3290  16.15$  16.92$  13.26$
  Q  0.6645  17.66$  2.77$  15.15$
  Q  0.6645  18.62$  2.32$  16.21$
  Q  -1.3290  18.38$  2.79$  15.57$
  Q  0.6645  12.05$  19.72$  4.55$
  Q  0.6645  13.26$  20.26$  5.43$
  Q  -1.3290  12.56$  19.81$  5.24$
  Q  0.6645  6.14$  4.47$  17.74$
  Q  0.6645  4.72$  5.02$  17.79$
  Q  -1.3290  5.55$  5.03$  17.91$
  Q  0.6645  7$  6.05$  4.57$
  Q  0.6645  6.11$  4.94$  5.11$
  Q  -1.3290  6.3$  5.71$  4.83$
  Q  0.6645  5.78$  2.01$  12.71$
  Q  0.6645  5.44$  3.26$  13.61$
  Q  -1.3290  5.89$  2.64$  13.27$
  Q  0.6645  5.5$  10.51$  3.09$
  Q  0.6645  6.25$  9.58$  4.08$
  Q  -1.3290  5.75$  9.78$  3.4$
  Q  0.6645  2.36$  6.27$  11.41$
  Q  0.6645  1.04$  6.55$  10.97$
  Q  -1.3290  1.81$  6.78$  11.14$
  Q  0.6645  15.29$  18.02$  5.7$
  Q  0.6645  13.75$  18.26$  5.36$
  Q  -1.3290  14.54$  17.92$  5.27$
  Q  0.6645  11.83$  6.77$  3.96$
  Q  0.6645  10.9$  6.71$  2.76$
  Q  -1.3290  11.08$  6.74$  3.59$
  Q  0.6645  9.86$  12.39$  20.77$
  Q  0.6645  10.94$  13.18$  19.99$
  Q  -1.3290  10.21$  13.08$  20.39$
  Q  0.6645  16.84$  9.34$  20$
  Q  0.6645  16.67$  8.17$  18.93$
  Q  -1.3290  16.41$  8.8$  19.47$
*
