! NoMOPrint PrintBasis #MINIPRINT SMALLPRINT LARGEPRINT
! ALLPOP XYZFILE
#! BP86 3-21G   TightSCF
! ENGRAD
! B3LYP NormalPNO PModel #DecontractAux
#! VerySlowConv 
 %maxcore 5000
 %scf  maxiter   500  end 

%pal
    nprocs 32
end

%basis
    NewGTO O    # New basis for oxygen
        "aug-cc-pVTZ"
    end
    NewGTO C    # New basis for carbon
        "aug-cc-pVTZ"
    end
    NewGTO H    # New basis for hydrogen
        "cc-pVTZ"
    end
end

* xyz 0   1
  C  10.88  10.91  9.18  #1
  H  10.92  10.04  8.45  #2
  H  11.89  11.21  9.55  #3
  C  9.86  10.67  10.28  #4
  H  9.42  11.56  10.58  #5
  H  9.13  10.01  9.92  #6
  C  10.39  10.04  11.56  #7
  H  10.47  8.96  11.33  #8
  H  9.72  10.18  12.37  #9
  C  11.75  10.57  12.11  #10
  H  11.51  11.41  12.78  #11
  H  12.26  11.11  11.25  #12
  O  12.57  9.54  12.65  #13
  H  12.18  9.18  13.4  #14
  O  10.4  11.96  8.3  #15
  H  10.25  12.74  8.8  #16
  O  10.64  14.06  11.92  #17
  H  10.4  14.32  11.04  #18
  H  11.59  14.24  12.01  #19
  O  9.25  13.68  14.32  #20
  H  9.36  12.72  14.41  #21
  H  9.65  13.8  13.44  #22
  O  6.18  10.46  11.32  #23
  H  6.37  10.41  12.25  #24
  H  6.42  9.59  10.97  #25
  O  9.27  7.05  9.33  #26
  H  10.16  7.09  9.74  #27
  H  8.73  7.19  10.08  #28
  O  10.74  7.9  15.41  #29
  H  11.23  8.08  16.24  #30
  H  11.38  7.36  14.99  #31
  O  13.95  8.13  10.72  #32
  H  14.6  7.73  11.36  #33
  H  13.48  8.81  11.19  #34
  O  12.58  6.41  14.16  #35
  H  13.55  6.27  14.1  #36
  H  12.4  5.93  15.01  #37
  O  8.47  5.57  11.86  #38
  H  8.13  5.1  11.07  #39
  H  9.4  5.47  11.83  #40
  O  11.26  8.71  18.08  #41
  H  10.69  9.46  18.34  #42
  H  12.13  8.94  18.45  #43
  O  9.05  5.16  7.52  #44
  H  9.17  5.81  8.21  #45
  H  8.41  5.56  6.89  #46
  O  8.13  11.68  6.49  #47
  H  8.95  11.81  6.99  #48
  H  8.48  11.54  5.59  #49
  O  6.97  7.84  10.25  #50
  H  7.13  8.01  9.29  #51
  H  6.1  7.39  10.26  #52
  O  13.42  13.79  12.43  #53
  H  13.56  14.7  12.68  #54
  H  14.22  13.32  12.66  #55
  O  6.58  13.98  14.94  #56
  H  6.19  14.51  14.26  #57
  H  7.47  13.64  14.69  #58
  O  15.31  10.31  13.02  #59
  H  15.83  10.14  12.22  #60
  H  14.36  10.11  12.94  #61
  O  10.94  7.8  6.94  #62
  H  10.9  7.88  7.95  #63
  H  11.32  8.62  6.69  #64
  O  9.72  14.55  9.35  #65
  H  9.82  14.74  8.38  #66
  H  8.82  14.27  9.54  #67
  O  3.67  11.76  11.07  #68
  H  3.68  12.49  11.71  #69
  H  4.55  11.37  11.22  #70
  O  11.91  6.64  9.53  #71
  H  12.7  7.12  9.91  #72
  H  12.28  6.39  8.68  #73
  O  11.18  5.11  11.92  #74
  H  11.53  5.48  11.13  #75
  H  11.68  5.54  12.61  #76
  O  14  13.48  9.61  #77
  H  14.09  14.28  9.08  #78
  H  13.54  13.84  10.39  #79
  O  12.03  10.34  6.11  #80
  H  12.95  10.26  6.05  #81
  H  11.96  11.23  6.46  #82
  O  10.09  15.02  6.64  #83
  H  10.43  15.84  6.32  #84
  H  10.79  14.44  6.52  #85
  O  12.19  13.14  6.54  #86
  H  13.15  13.23  6.38  #87
  H  12.05  13.05  7.49  #88
  O  7.5  13.15  9.95  #89
  H  7.43  12.47  10.63  #90
  H  6.66  12.91  9.5  #91
  O  9.14  15.87  16.21  #92
  H  8.36  15.45  16.71  #93
  H  9.18  15.31  15.44  #94
  O  5.15  10.53  13.94  #95
  H  4.72  9.81  13.55  #96
  H  5.57  10.04  14.61  #97
  O  8.13  8.56  14.59  #98
  H  7.54  7.93  14.17  #99
  H  8.98  8.14  14.78  #100
  O  11.72  13.95  15.52  #101
  H  10.79  13.83  15.25  #102
  H  12.13  14.83  15.22  #103
  O  12.04  5.08  16.57  #104
  H  11.29  5.54  16.84  #105
  H  12.81  5.52  16.99  #106
  O  12.74  16.46  12.64  #107
  H  11.97  16.8  12.15  #108
  H  13.47  16.82  12.15  #109
  O  9.5  10.95  15.1  #110
  H  9.05  10.22  14.77  #111
  H  10.21  10.6  15.62  #112
  Q  0.6645  15.05$  11.1$  7.44$
  Q  0.6645  15.36$  10.28$  6.23$
  Q  -1.3290  14.91$  10.46$  6.96$
  Q  0.6645  3.03$  16.65$  12.36$
  Q  0.6645  3.61$  16.19$  10.97$
  Q  -1.3290  3.01$  16.45$  11.54$
  Q  0.6645  13.66$  13.45$  16.15$
  Q  0.6645  14.41$  12.41$  16.9$
  Q  -1.3290  14.23$  13.18$  16.74$
  Q  0.6645  18.43$  8.36$  12.63$
  Q  0.6645  18.93$  6.78$  12.43$
  Q  -1.3290  18.59$  7.62$  12.22$
  Q  0.6645  8.4$  15.26$  5.44$
  Q  0.6645  7.26$  14.77$  4.63$
  Q  -1.3290  7.72$  15.37$  4.98$
  Q  0.6645  15.7$  13.7$  0.11$
  Q  0.6645  15.24$  13.56$  1.49$
  Q  -1.3290  15.3$  13.93$  0.77$
  Q  0.6645  4.39$  3.89$  6.16$
  Q  0.6645  5.22$  4.63$  5.08$
  Q  -1.3290  4.99$  3.98$  5.56$
  Q  0.6645  8.52$  7.28$  19.99$
  Q  0.6645  8.94$  8.56$  20.84$
  Q  -1.3290  8.4$  7.99$  20.47$
  Q  0.6645  3.72$  15.27$  4.34$
  Q  0.6645  3.44$  16.78$  4.28$
  Q  -1.3290  3.91$  16.1$  4.32$
  Q  0.6645  7.59$  5.03$  1.5$
  Q  0.6645  6.75$  5$  2.75$
  Q  -1.3290  7.25$  4.65$  2.16$
  Q  0.6645  8.29$  12.24$  -0.06$
  Q  0.6645  9.02$  12.88$  1.12$
  Q  -1.3290  8.35$  12.59$  0.7$
  Q  0.6645  4.14$  16.58$  15.13$
  Q  0.6645  3.89$  17.9$  15.86$
  Q  -1.3290  3.68$  17.15$  15.53$
  Q  0.6645  4.44$  4.35$  8.44$
  Q  0.6645  5.23$  3.26$  7.68$
  Q  -1.3290  4.85$  3.64$  8.37$
  Q  0.6645  18.8$  3.43$  14.99$
  Q  0.6645  20.24$  3.54$  15.48$
  Q  -1.3290  19.53$  3.87$  15.23$
  Q  0.6645  1.98$  8.37$  8.14$
  Q  0.6645  2.12$  8.48$  6.7$
  Q  -1.3290  2.36$  8.2$  7.45$
  Q  0.6645  15.42$  11.62$  3.53$
  Q  0.6645  14.27$  12.05$  2.74$
  Q  -1.3290  14.97$  12.19$  3.12$
  Q  0.6645  4.7$  5.58$  11.23$
  Q  0.6645  3.72$  6.46$  10.39$
  Q  -1.3290  4.46$  6.24$  10.75$
  Q  0.6645  3.31$  12.4$  2.53$
  Q  0.6645  3.47$  11.18$  3.55$
  Q  -1.3290  3.09$  11.65$  2.95$
  Q  0.6645  15.01$  5.68$  18.36$
  Q  0.6645  14.48$  7.11$  18.53$
  Q  -1.3290  14.64$  6.41$  18.11$
  Q  0.6645  3.9$  9.4$  7.91$
  Q  0.6645  4.58$  10.01$  6.71$
  Q  -1.3290  4.48$  9.89$  7.52$
  Q  0.6645  12.47$  2.11$  10.56$
  Q  0.6645  12.13$  3.24$  11.63$
  Q  -1.3290  12.39$  2.46$  11.37$
  Q  0.6645  18.26$  12.24$  6.21$
  Q  0.6645  19.06$  11.1$  5.47$
  Q  -1.3290  18.45$  11.44$  5.96$
  Q  0.6645  8.79$  16.17$  9.72$
  Q  0.6645  7.98$  17.45$  9.33$
  Q  -1.3290  8.25$  16.84$  9.86$
  Q  0.6645  18.49$  11.9$  12.67$
  Q  0.6645  19.05$  13.27$  12.25$
  Q  -1.3290  18.64$  12.74$  12.75$
  Q  0.6645  15.33$  12.52$  9.44$
  Q  0.6645  16.19$  11.4$  9.92$
  Q  -1.3290  16$  12.04$  9.43$
  Q  0.6645  18.21$  14.31$  7.47$
  Q  0.6645  17.15$  13.14$  7.86$
  Q  -1.3290  17.58$  13.72$  7.37$
  Q  0.6645  11.78$  3.64$  15.56$
  Q  0.6645  10.68$  3.58$  14.41$
  Q  -1.3290  11.43$  3.37$  14.83$
  Q  0.6645  11.7$  19.58$  14.86$
  Q  0.6645  10.99$  19.41$  13.5$
  Q  -1.3290  11.08$  19.33$  14.34$
  Q  0.6645  8.95$  4.85$  15.31$
  Q  0.6645  8.63$  4.9$  13.74$
  Q  -1.3290  8.91$  4.57$  14.48$
  Q  0.6645  15.52$  2.98$  8.22$
  Q  0.6645  16.55$  3.73$  7.32$
  Q  -1.3290  16.23$  3.08$  7.75$
  Q  0.6645  9.61$  15$  20.67$
  Q  0.6645  9.3$  16.43$  20.37$
  Q  -1.3290  9.14$  15.63$  20.33$
  Q  0.6645  3.22$  5.66$  14.83$
  Q  0.6645  4.64$  6.04$  15.49$
  Q  -1.3290  4.07$  5.82$  14.85$
  Q  0.6645  15.72$  10.88$  14.6$
  Q  0.6645  16.17$  10.94$  16.09$
  Q  -1.3290  16.21$  11.17$  15.3$
  Q  0.6645  13.48$  9.94$  1.42$
  Q  0.6645  14.09$  8.83$  2.32$
  Q  -1.3290  13.73$  9.16$  1.6$
  Q  0.6645  7.97$  15.33$  0.61$
  Q  0.6645  8.96$  15.72$  1.66$
  Q  -1.3290  8.22$  15.77$  1.27$
  Q  0.6645  15.15$  0.97$  9.23$
  Q  0.6645  13.73$  1.23$  8.7$
  Q  -1.3290  14.42$  1.38$  9.16$
  Q  0.6645  12.23$  12.07$  1.48$
  Q  0.6645  13.48$  12.2$  0.44$
  Q  -1.3290  13.01$  11.9$  1.11$
  Q  0.6645  19$  16.25$  8.42$
  Q  0.6645  20.21$  15.44$  8.09$
  Q  -1.3290  19.44$  15.55$  8.39$
  Q  0.6645  13.28$  7.83$  20.65$
  Q  0.6645  13.77$  9.3$  20.76$
  Q  -1.3290  13.45$  8.62$  20.36$
  Q  0.6645  11.26$  1.55$  15.12$
  Q  0.6645  11.8$  0.12$  15.59$
  Q  -1.3290  11.23$  0.73$  15.44$
  Q  0.6645  17.93$  18.12$  9.97$
  Q  0.6645  17.75$  17.18$  11.1$
  Q  -1.3290  17.46$  17.74$  10.53$
  Q  0.6645  13.65$  0.78$  16.53$
  Q  0.6645  13.85$  1.59$  17.79$
  Q  -1.3290  13.5$  1.44$  17.06$
  Q  0.6645  2.98$  8.33$  14.74$
  Q  0.6645  1.92$  8.57$  15.99$
  Q  -1.3290  2.29$  8.63$  15.18$
  Q  0.6645  19.78$  12.44$  14.45$
  Q  0.6645  20.94$  11.38$  14.82$
  Q  -1.3290  20.56$  12.19$  14.7$
  Q  0.6645  1.44$  13.8$  10.67$
  Q  0.6645  2.01$  14.79$  11.62$
  Q  -1.3290  1.53$  14.13$  11.41$
  Q  0.6645  16.43$  7.01$  11.92$
  Q  0.6645  15.62$  5.79$  11.87$
  Q  -1.3290  15.77$  6.58$  12.07$
  Q  0.6645  17.06$  17.43$  18.96$
  Q  0.6645  15.64$  17$  18.18$
  Q  -1.3290  16.2$  17.5$  18.69$
  Q  0.6645  19.15$  9.88$  13.96$
  Q  0.6645  17.74$  10.43$  14.31$
  Q  -1.3290  18.32$  10.06$  13.82$
  Q  0.6645  4.51$  16.2$  8.45$
  Q  0.6645  3.63$  15.97$  7.22$
  Q  -1.3290  4.03$  16.45$  7.8$
  Q  0.6645  14.2$  16.56$  14.14$
  Q  0.6645  15.44$  15.64$  13.71$
  Q  -1.3290  15.04$  16.38$  13.96$
  Q  0.6645  1.47$  6.48$  10.27$
  Q  0.6645  1.68$  7.46$  11.46$
  Q  -1.3290  1.86$  6.79$  10.98$
  Q  0.6645  14.49$  16.55$  10.13$
  Q  0.6645  15.62$  17.36$  10.81$
  Q  -1.3290  14.8$  17.14$  10.68$
  Q  0.6645  2.94$  6.37$  7.35$
  Q  0.6645  2.51$  4.9$  7.02$
  Q  -1.3290  2.91$  5.52$  7.45$
  Q  0.6645  10.62$  13.25$  20.98$
  Q  0.6645  11.38$  14.43$  20.17$
  Q  -1.3290  10.97$  14.01$  20.83$
  Q  0.6645  1.88$  13.02$  8.51$
  Q  0.6645  0.4$  12.55$  8.84$
  Q  -1.3290  1.15$  12.98$  8.93$
  Q  0.6645  4$  13.5$  6.4$
  Q  0.6645  2.53$  13.75$  6.36$
  Q  -1.3290  3.27$  13.7$  6.76$
  Q  0.6645  2.33$  10.51$  10.04$
  Q  0.6645  0.93$  10.44$  9.7$
  Q  -1.3290  1.66$  10.11$  9.82$
  Q  0.6645  6.07$  12.21$  18.97$
  Q  0.6645  6.33$  13.19$  20.13$
  Q  -1.3290  6.3$  12.44$  19.75$
  Q  0.6645  12.1$  5.34$  20.93$
  Q  0.6645  12.06$  6.39$  22.05$
  Q  -1.3290  12.29$  6.08$  21.31$
  Q  0.6645  8.83$  3.92$  2.9$
  Q  0.6645  9.07$  2.56$  3.45$
  Q  -1.3290  9.3$  3.32$  3.23$
  Q  0.6645  9.37$  7.92$  2.9$
  Q  0.6645  8.77$  8.06$  4.32$
  Q  -1.3290  9.03$  8.33$  3.56$
  Q  0.6645  17.81$  3.18$  11.05$
  Q  0.6645  17.88$  4.22$  12.19$
  Q  -1.3290  17.52$  3.61$  11.73$
  Q  0.6645  5.78$  12.72$  4.64$
  Q  0.6645  5.99$  12.31$  6.15$
  Q  -1.3290  5.56$  12.58$  5.45$
  Q  0.6645  13.7$  16.36$  3.26$
  Q  0.6645  15.13$  16.78$  2.57$
  Q  -1.3290  14.37$  16.86$  3.03$
  Q  0.6645  8.14$  1.37$  5.62$
  Q  0.6645  8.16$  1.66$  7.07$
  Q  -1.3290  7.82$  1.32$  6.39$
  Q  0.6645  5.63$  16.66$  3.14$
  Q  0.6645  6.86$  16.92$  2.28$
  Q  -1.3290  6.07$  17.05$  2.54$
  Q  0.6645  11.64$  3.25$  20.2$
  Q  0.6645  11.73$  3.58$  18.68$
  Q  -1.3290  11.73$  3.74$  19.51$
  Q  0.6645  15.5$  4.8$  20.38$
  Q  0.6645  16.24$  4.19$  19.19$
  Q  -1.3290  15.57$  4.46$  19.62$
  Q  0.6645  10.34$  7.01$  18.8$
  Q  0.6645  10.46$  5.63$  19.45$
  Q  -1.3290  10.11$  6.21$  18.95$
  Q  0.6645  18.19$  9.68$  17.65$
  Q  0.6645  18.88$  10.75$  18.42$
  Q  -1.3290  18.5$  10.44$  17.74$
  Q  0.6645  5.92$  6.95$  16.96$
  Q  0.6645  6.19$  5.5$  17.21$
  Q  -1.3290  5.69$  6.17$  17.11$
  Q  0.6645  0.54$  9.22$  12.38$
  Q  0.6645  1.21$  8.52$  13.53$
  Q  -1.3290  0.67$  8.57$  12.88$
  Q  0.6645  6.17$  8.32$  19.92$
  Q  0.6645  5.13$  7.69$  19.15$
  Q  -1.3290  5.65$  8.31$  19.31$
  Q  0.6645  14.8$  6.38$  6.51$
  Q  0.6645  14.13$  5.67$  5.35$
  Q  -1.3290  14.7$  5.79$  5.95$
  Q  0.6645  6.98$  6.54$  12.5$
  Q  0.6645  6.06$  6.12$  13.65$
  Q  -1.3290  6.51$  6.66$  13.19$
  Q  0.6645  16.77$  13.57$  13.25$
  Q  0.6645  16.11$  13.06$  14.46$
  Q  -1.3290  16.24$  13.65$  13.88$
  Q  0.6645  -0.17$  12.06$  12.83$
  Q  0.6645  0.87$  11.55$  11.86$
  Q  -1.3290  0.13$  11.52$  12.22$
  Q  0.6645  3.39$  6.87$  17.83$
  Q  0.6645  2.69$  8.1$  18.51$
  Q  -1.3290  2.77$  7.43$  17.98$
  Q  0.6645  4.86$  11.91$  16.64$
  Q  0.6645  6.18$  12.67$  16.42$
  Q  -1.3290  5.65$  12.11$  16.81$
  Q  0.6645  11.59$  8.21$  1.54$
  Q  0.6645  11.76$  6.88$  2.45$
  Q  -1.3290  11.45$  7.38$  1.82$
  Q  0.6645  4.55$  7.83$  13.41$
  Q  0.6645  3.74$  7.58$  12.13$
  Q  -1.3290  4.09$  8.11$  12.75$
  Q  0.6645  4.33$  5.65$  3.25$
  Q  0.6645  5.25$  6.69$  3.47$
  Q  -1.3290  5$  5.93$  3.58$
  Q  0.6645  17.26$  9.43$  10.39$
  Q  0.6645  15.81$  9.12$  10.12$
  Q  -1.3290  16.44$  9.46$  10.58$
  Q  0.6645  19.48$  7.48$  7.34$
  Q  0.6645  19.02$  6.02$  7.32$
  Q  -1.3290  19.58$  6.63$  7.31$
  Q  0.6645  13.73$  16.73$  8.23$
  Q  0.6645  14.88$  15.94$  7.71$
  Q  -1.3290  14.25$  16.08$  8.24$
  Q  0.6645  5.09$  9.46$  4.53$
  Q  0.6645  3.58$  8.98$  4.93$
  Q  -1.3290  4.28$  9.49$  4.9$
  Q  0.6645  11.01$  20.58$  9.17$
  Q  0.6645  11.46$  20.48$  10.63$
  Q  -1.3290  11.37$  20.21$  9.82$
  Q  0.6645  18.03$  14.43$  16.73$
  Q  0.6645  18.09$  12.82$  17.08$
  Q  -1.3290  17.9$  13.65$  17.17$
  Q  0.6645  11.85$  12.6$  16.9$
  Q  0.6645  12.56$  11.35$  17.51$
  Q  -1.3290  11.9$  11.84$  17.31$
  Q  0.6645  15.53$  14.87$  16.9$
  Q  0.6645  15.23$  16.14$  16.1$
  Q  -1.3290  15.55$  15.7$  16.76$
  Q  0.6645  8.22$  4.08$  17.37$
  Q  0.6645  8.47$  5.45$  17.83$
  Q  -1.3290  8.25$  4.89$  17.27$
  Q  0.6645  4.71$  4.42$  13.17$
  Q  0.6645  5.97$  3.78$  12.64$
  Q  -1.3290  5.21$  4.1$  12.59$
  Q  0.6645  14.42$  2.93$  15.82$
  Q  0.6645  14.65$  2.17$  14.56$
  Q  -1.3290  14.73$  2.86$  15.05$
  Q  0.6645  8.09$  19.31$  4.93$
  Q  0.6645  6.71$  19.21$  4.37$
  Q  -1.3290  7.55$  19.2$  4.34$
  Q  0.6645  7.71$  13.27$  18.59$
  Q  0.6645  9.02$  14.12$  18.43$
  Q  -1.3290  8.31$  13.73$  18.19$
  Q  0.6645  18.32$  9.68$  7.26$
  Q  0.6645  19.07$  9.47$  8.67$
  Q  -1.3290  18.82$  9.28$  7.83$
  Q  0.6645  15.44$  3.8$  11.14$
  Q  0.6645  13.93$  4.16$  10.92$
  Q  -1.3290  14.78$  4.3$  10.93$
  Q  0.6645  6.4$  11.14$  3.03$
  Q  0.6645  6.89$  12.26$  2.05$
  Q  -1.3290  6.43$  11.94$  2.7$
  Q  0.6645  12.14$  3.78$  5.61$
  Q  0.6645  12.06$  2.49$  6.42$
  Q  -1.3290  12.47$  3.07$  5.95$
  Q  0.6645  10.42$  15.87$  17.43$
  Q  0.6645  10.81$  16.7$  18.69$
  Q  -1.3290  10.89$  16.09$  18.08$
  Q  0.6645  17.81$  16.21$  15.63$
  Q  0.6645  17.42$  14.96$  14.92$
  Q  -1.3290  17.96$  15.45$  15.3$
  Q  0.6645  9.83$  10.28$  3.76$
  Q  0.6645  10.61$  10.72$  4.97$
  Q  -1.3290  10.11$  10.85$  4.31$
  Q  0.6645  19.45$  8.77$  10.81$
  Q  0.6645  20.06$  10.23$  10.77$
  Q  -1.3290  19.57$  9.56$  10.52$
  Q  0.6645  9.62$  17.54$  11.33$
  Q  0.6645  10.52$  18.69$  10.92$
  Q  -1.3290  10.29$  18.04$  11.41$
  Q  0.6645  11.59$  22.5$  12.17$
  Q  0.6645  11.6$  21.42$  13.19$
  Q  -1.3290  11.4$  21.76$  12.49$
  Q  0.6645  10.8$  0.92$  7.46$
  Q  0.6645  10.41$  -0.52$  6.76$
  Q  -1.3290  10.87$  0.19$  6.99$
  Q  0.6645  3.71$  18.41$  8.61$
  Q  0.6645  4.13$  19.91$  8.38$
  Q  -1.3290  3.71$  19.25$  8.76$
  Q  0.6645  12.65$  21.17$  7.37$
  Q  0.6645  13.69$  20.72$  8.47$
  Q  -1.3290  13.44$  21.03$  7.7$
  Q  0.6645  16.69$  5.38$  6.17$
  Q  0.6645  17.83$  4.67$  5.5$
  Q  -1.3290  17.43$  5.01$  6.16$
  Q  0.6645  7.75$  4.95$  9.04$
  Q  0.6645  6.57$  4.04$  9.72$
  Q  -1.3290  7.39$  4.28$  9.51$
  Q  0.6645  16.83$  5.6$  15.78$
  Q  0.6645  18.32$  5.11$  16.13$
  Q  -1.3290  17.53$  5.43$  16.3$
  Q  0.6645  8.37$  19.8$  7.26$
  Q  0.6645  9.27$  18.89$  6.26$
  Q  -1.3290  8.96$  19.62$  6.66$
  Q  0.6645  8.91$  1.38$  9.21$
  Q  0.6645  8.57$  2.76$  8.85$
  Q  -1.3290  9$  2.07$  8.75$
  Q  0.6645  16.53$  7.7$  20.96$
  Q  0.6645  17.29$  6.35$  20.7$
  Q  -1.3290  16.84$  7.06$  20.52$
  Q  0.6645  13.86$  4.8$  7.31$
  Q  0.6645  14.35$  4.75$  8.84$
  Q  -1.3290  13.8$  4.76$  8.17$
  Q  0.6645  17.1$  13.32$  19.04$
  Q  0.6645  17.85$  12.48$  20.02$
  Q  -1.3290  17.24$  13.04$  19.82$
  Q  0.6645  5.36$  20.07$  10.84$
  Q  0.6645  6.82$  19.66$  11.12$
  Q  -1.3290  6.19$  20.08$  10.74$
  Q  0.6645  15.31$  8.9$  14.66$
  Q  0.6645  15.15$  7.69$  15.57$
  Q  -1.3290  15.06$  8.5$  15.34$
  Q  0.6645  14.82$  0.71$  12.3$
  Q  0.6645  13.71$  1.64$  12.77$
  Q  -1.3290  14.27$  1.01$  12.86$
  Q  0.6645  20.13$  9.81$  16.4$
  Q  0.6645  20.65$  8.96$  15.28$
  Q  -1.3290  20.58$  9.65$  15.74$
  Q  0.6645  19.82$  4.41$  11.94$
  Q  0.6645  19.8$  5.07$  13.42$
  Q  -1.3290  19.57$  4.92$  12.6$
  Q  0.6645  6.64$  17.35$  5.68$
  Q  0.6645  5.3$  17.5$  6.32$
  Q  -1.3290  6.02$  17.78$  6.06$
  Q  0.6645  18.16$  16.12$  13.3$
  Q  0.6645  19.05$  15.73$  12.03$
  Q  -1.3290  18.5$  16.21$  12.52$
  Q  0.6645  8.13$  10.43$  17.79$
  Q  0.6645  7.35$  9.59$  18.87$
  Q  -1.3290  7.9$  10.16$  18.57$
  Q  0.6645  20.48$  7.4$  13.7$
  Q  0.6645  20.77$  6.84$  15.14$
  Q  -1.3290  20.32$  7.22$  14.55$
  Q  0.6645  12.6$  15.39$  18.6$
  Q  0.6645  13.51$  14.13$  18.75$
  Q  -1.3290  13.11$  14.83$  19.02$
  Q  0.6645  20.15$  14.95$  10.37$
  Q  0.6645  21.16$  14.47$  11.34$
  Q  -1.3290  20.4$  14.54$  11.07$
  Q  0.6645  15.58$  9.68$  0.81$
  Q  0.6645  17.17$  9.91$  0.86$
  Q  -1.3290  16.39$  9.68$  0.5$
  Q  0.6645  5.92$  15.29$  18.08$
  Q  0.6645  6.09$  15.12$  16.62$
  Q  -1.3290  6.04$  15.58$  17.3$
  Q  0.6645  15.37$  12.14$  20.18$
  Q  0.6645  15.62$  10.7$  20.2$
  Q  -1.3290  15.1$  11.36$  20.17$
  Q  0.6645  18.31$  8.02$  2.95$
  Q  0.6645  18.68$  7.26$  4.19$
  Q  -1.3290  18.17$  7.46$  3.56$
  Q  0.6645  10.62$  10.09$  21.25$
  Q  0.6645  11.35$  8.75$  21$
  Q  -1.3290  10.74$  9.26$  21.3$
  Q  0.6645  16.24$  9.52$  4.35$
  Q  0.6645  16.96$  10.58$  5.16$
  Q  -1.3290  16.33$  10.26$  4.74$
  Q  0.6645  10.54$  16.31$  3.15$
  Q  0.6645  11.3$  16.07$  1.84$
  Q  -1.3290  10.87$  15.85$  2.52$
  Q  0.6645  15.73$  6.24$  13.99$
  Q  0.6645  15.2$  4.82$  14.68$
  Q  -1.3290  15.41$  5.7$  14.65$
  Q  0.6645  17.43$  2.44$  13.44$
  Q  0.6645  16.93$  2.37$  14.85$
  Q  -1.3290  17.5$  2.28$  14.25$
  Q  0.6645  4.25$  14.73$  13.31$
  Q  0.6645  5.14$  15.74$  12.5$
  Q  -1.3290  4.8$  15.41$  13.21$
  Q  0.6645  7.43$  1.62$  13.75$
  Q  0.6645  7.64$  3.08$  14.18$
  Q  -1.3290  7.19$  2.42$  13.94$
  Q  0.6645  6.27$  9.5$  7.51$
  Q  0.6645  7.52$  10.07$  7.16$
  Q  -1.3290  7.09$  9.46$  7.42$
  Q  0.6645  6.94$  9.03$  15.76$
  Q  0.6645  5.72$  9.26$  16.71$
  Q  -1.3290  6.13$  9.02$  16$
  Q  0.6645  4.71$  13.87$  1.91$
  Q  0.6645  3.53$  14.83$  1.72$
  Q  -1.3290  3.89$  14.06$  1.83$
  Q  0.6645  10.92$  11.69$  19.32$
  Q  0.6645  9.42$  11.16$  19.48$
  Q  -1.3290  10.21$  11.43$  19.73$
  Q  0.6645  7.89$  7.88$  6.33$
  Q  0.6645  9.33$  7.55$  6.23$
  Q  -1.3290  8.53$  7.43$  6.04$
  Q  0.6645  16.66$  16.86$  5.72$
  Q  0.6645  15.45$  17.13$  4.92$
  Q  -1.3290  15.88$  17.09$  5.63$
  Q  0.6645  14.26$  9.66$  16.66$
  Q  0.6645  14.21$  10.37$  18.09$
  Q  -1.3290  14.11$  10.31$  17.25$
  Q  0.6645  9.94$  18.67$  15.69$
  Q  0.6645  8.99$  17.61$  16.23$
  Q  -1.3290  9.38$  18.37$  16.24$
  Q  0.6645  10.87$  2.63$  8.74$
  Q  0.6645  12.19$  3.51$  8.37$
  Q  -1.3290  11.69$  2.84$  8.61$
  Q  0.6645  5.54$  14.93$  10.62$
  Q  0.6645  6.31$  16.12$  10.29$
  Q  -1.3290  5.64$  15.75$  10.61$
  Q  0.6645  12.12$  17.02$  16.34$
  Q  0.6645  12.31$  17.42$  14.9$
  Q  -1.3290  12.43$  16.94$  15.55$
  Q  0.6645  16.84$  8.14$  8.18$
  Q  0.6645  15.48$  8.72$  7.62$
  Q  -1.3290  16.06$  8.1$  7.86$
  Q  0.6645  17.63$  2.94$  17.98$
  Q  0.6645  17.78$  4.52$  17.89$
  Q  -1.3290  17.84$  3.72$  18.23$
  Q  0.6645  19.66$  5.89$  19.32$
  Q  0.6645  19.06$  6.96$  18.31$
  Q  -1.3290  19.63$  6.42$  18.6$
  Q  0.6645  12.42$  18.59$  8.79$
  Q  0.6645  13.37$  18.85$  7.7$
  Q  -1.3290  12.73$  18.46$  8.06$
  Q  0.6645  6.6$  19.07$  9.04$
  Q  0.6645  6.64$  18.54$  7.63$
  Q  -1.3290  6.95$  18.76$  8.36$
  Q  0.6645  10.11$  5.21$  6.07$
  Q  0.6645  10.04$  4.48$  4.71$
  Q  -1.3290  10.39$  4.97$  5.31$
  Q  0.6645  11.35$  17.97$  6.48$
  Q  0.6645  10.87$  18.24$  5.02$
  Q  -1.3290  10.84$  17.91$  5.82$
  Q  0.6645  7.68$  18.47$  12.98$
  Q  0.6645  6.54$  19.4$  13.6$
  Q  -1.3290  7.33$  19.2$  13.28$
  Q  0.6645  16.12$  7.61$  3.56$
  Q  0.6645  14.75$  7.27$  4$
  Q  -1.3290  15.32$  7.77$  3.68$
  Q  0.6645  15.01$  18.88$  9.81$
  Q  0.6645  15.78$  20.16$  9.19$
  Q  -1.3290  15.12$  19.71$  9.54$
  Q  0.6645  2.81$  10.97$  15.85$
  Q  0.6645  2.42$  12.38$  16.27$
  Q  -1.3290  2.78$  11.64$  16.38$
  Q  0.6645  17.05$  7.72$  18.6$
  Q  0.6645  17.57$  7.36$  17.15$
  Q  -1.3290  17.45$  7.88$  17.82$
  Q  0.6645  4.34$  12.75$  9.9$
  Q  0.6645  4.49$  13.44$  8.51$
  Q  -1.3290  4.69$  13.26$  9.33$
  Q  0.6645  7.06$  8.68$  3.16$
  Q  0.6645  5.73$  8.87$  2.27$
  Q  -1.3290  6.24$  8.92$  3.02$
  Q  0.6645  12.05$  5.8$  4.48$
  Q  0.6645  13.01$  5.21$  3.32$
  Q  -1.3290  12.73$  5.73$  3.96$
  Q  0.6645  15.07$  13.12$  4.88$
  Q  0.6645  15.93$  13.78$  5.97$
  Q  -1.3290  15.19$  13.54$  5.6$
  Q  0.6645  11.08$  13.82$  2.46$
  Q  0.6645  10.54$  12.44$  3.04$
  Q  -1.3290  10.8$  12.99$  2.44$
  Q  0.6645  9.27$  6.6$  1.03$
  Q  0.6645  7.88$  7.27$  0.8$
  Q  -1.3290  8.46$  6.77$  1.2$
  Q  0.6645  4.11$  12.32$  13.87$
  Q  0.6645  2.73$  13.04$  14.33$
  Q  -1.3290  3.51$  12.96$  13.98$
  Q  0.6645  11.79$  19.43$  3.48$
  Q  0.6645  10.27$  19.27$  2.88$
  Q  -1.3290  10.97$  19.08$  3.37$
  Q  0.6645  16.21$  19.32$  14.67$
  Q  0.6645  15.24$  18.09$  14.75$
  Q  -1.3290  15.59$  18.82$  15.05$
*
