! NoMOPrint PrintBasis #MINIPRINT SMALLPRINT LARGEPRINT
! ALLPOP XYZFILE
#! BP86 3-21G   TightSCF
! ENGRAD
! B3LYP NormalPNO PModel #DecontractAux
#! VerySlowConv 
 %maxcore 5000
 %scf  maxiter   500  end 

%pal
    nprocs 32
end

%basis
    NewGTO O    # New basis for oxygen
        "aug-cc-pVTZ"
    end
    NewGTO C    # New basis for carbon
        "aug-cc-pVTZ"
    end
    NewGTO H    # New basis for hydrogen
        "cc-pVTZ"
    end
end

* xyz 0   1
  C  11.9  11.13  12.87  #1
  H  12.77  10.53  12.54  #2
  H  11.59  10.64  13.79  #3
  C  10.87  11.2  11.75  #4
  H  10.06  11.78  12.04  #5
  H  11.28  11.77  10.92  #6
  C  10.46  9.82  11.29  #7
  H  9.74  9.32  12.02  #8
  H  11.35  9.25  11.22  #9
  C  9.87  9.89  9.91  #10
  H  9.1  10.63  9.88  #11
  H  9.5  8.92  9.71  #12
  O  10.86  10.25  8.92  #13
  H  10.44  9.92  8.08  #14
  O  12.24  12.52  13.15  #15
  H  11.53  12.95  13.63  #16
  O  10.01  13.89  13.5  #17
  H  9.25  13.99  14.17  #18
  H  10.56  14.7  13.62  #19
  O  9.12  8.65  15.12  #20
  H  9.49  9.46  15.48  #21
  H  9.73  7.97  15.44  #22
  O  9.77  6.53  10.78  #23
  H  9.32  6.46  9.91  #24
  H  9.28  6.26  11.57  #25
  O  12.24  6.28  9.71  #26
  H  11.43  6.65  10.11  #27
  H  11.99  5.83  8.86  #28
  O  8  12.71  8.4  #29
  H  8.53  13.01  9.09  #30
  H  7.94  13.52  7.87  #31
  O  9.77  17.4  12.48  #32
  H  9.89  17.55  11.52  #33
  H  10.66  17.09  12.84  #34
  O  12.33  4.51  7.52  #35
  H  13.14  4.09  7.2  #36
  H  11.97  4.89  6.72  #37
  O  11.97  16.21  14.31  #38
  H  12.67  16.23  14.92  #39
  H  12.21  15.94  13.41  #40
  O  14.29  5.28  11.33  #41
  H  14.89  5.99  11.39  #42
  H  13.5  5.52  10.82  #43
  O  9.98  11.17  16.08  #44
  H  10.6  11.88  16.27  #45
  H  9.47  11.04  16.9  #46
  O  9.49  16.5  15.64  #47
  H  9.31  15.75  16.25  #48
  H  10.19  16.18  15.13  #49
  O  7.73  7.13  17.7  #50
  H  8.24  7.6  17.02  #51
  H  7.14  6.6  17.16  #52
  O  8.37  7.36  8.19  #53
  H  8.04  6.51  7.86  #54
  H  7.6  7.83  8.58  #55
  O  12.32  9.53  16.05  #56
  H  12.45  8.72  16.6  #57
  H  11.49  9.8  16.3  #58
  O  11.78  8.03  5.9  #59
  H  10.99  8.54  6.13  #60
  H  12.38  8.11  6.63  #61
  O  14.55  13.71  12.56  #62
  H  13.65  13.62  13  #63
  H  14.82  14.56  12.86  #64
  O  9.4  9.27  6.62  #65
  H  8.74  9.97  6.69  #66
  H  9.02  8.51  7.19  #67
  O  5.48  11.92  9.25  #68
  H  6.31  12.29  8.94  #69
  H  5.17  12.58  9.92  #70
  O  7.84  14.08  15.31  #71
  H  7.19  14.7  15  #72
  H  7.33  13.61  15.91  #73
  O  15.25  9.51  12.06  #74
  H  15.29  9.71  12.99  #75
  H  15.35  10.35  11.54  #76
  O  11.47  6.01  13.16  #77
  H  11.2  6.12  12.2  #78
  H  12.3  6.5  13.32  #79
  O  10.41  15.19  9.08  #80
  H  10.48  16.13  9.32  #81
  H  9.71  14.84  9.62  #82
  O  11.94  12.46  7.93  #83
  H  12.51  12.93  8.54  #84
  H  11.75  11.63  8.4  #85
  O  6.37  6.84  11.53  #86
  H  6.64  5.92  11.37  #87
  H  7.13  7.27  12.03  #88
  O  7.16  11.1  6.35  #89
  H  6.78  11.28  5.52  #90
  H  7.81  11.81  6.48  #91
  O  13.56  9.54  9.39  #92
  H  12.66  9.39  9.64  #93
  H  14.09  9.22  10.12  #94
  O  14.89  9.81  14.86  #95
  H  15.52  10.43  15.24  #96
  H  14.02  10.13  15.08  #97
  O  11.01  3.03  9.7  #98
  H  11.66  2.48  10.12  #99
  H  11.34  3.66  9.01  #100
  O  8.78  14.16  11  #101
  H  8  14.77  11.18  #102
  H  9.15  13.82  11.87  #103
  O  7.98  8.61  12.81  #104
  H  7.67  9.44  12.47  #105
  H  8.24  8.65  13.74  #106
  O  7.74  15.43  6.66  #107
  H  8.75  15.55  6.45  #108
  H  7.15  15.18  5.95  #109
  O  10.3  6.36  15.74  #110
  H  10.24  5.54  16.21  #111
  H  10.69  6.27  14.85  #112
  Q  0.6645  11.14$  14.76$  5.63$
  Q  0.6645  10.81$  15.12$  7.11$
  Q  -1.3290  10.75$  15.2$  6.23$
  Q  0.6645  18.77$  10.93$  18.42$
  Q  0.6645  19.88$  11.99$  18.05$
  Q  -1.3290  19.54$  11.2$  18.13$
  Q  0.6645  5.83$  1.58$  5.66$
  Q  0.6645  6.72$  0.54$  6.07$
  Q  -1.3290  6.57$  1.3$  5.83$
  Q  0.6645  8.11$  3.86$  11.11$
  Q  0.6645  7.29$  4.32$  9.84$
  Q  -1.3290  7.53$  4.33$  10.66$
  Q  0.6645  6.18$  9.95$  17.84$
  Q  0.6645  7.43$  9.16$  18.2$
  Q  -1.3290  6.88$  9.77$  18.3$
  Q  0.6645  18.3$  6.29$  8.68$
  Q  0.6645  17.58$  6.31$  7.14$
  Q  -1.3290  18.05$  6.55$  7.85$
  Q  0.6645  11.32$  2.08$  4.06$
  Q  0.6645  11.17$  0.8$  3.26$
  Q  -1.3290  10.92$  1.45$  3.74$
  Q  0.6645  6.11$  7.77$  5.73$
  Q  0.6645  5.08$  6.62$  5.62$
  Q  -1.3290  5.38$  7.37$  5.89$
  Q  0.6645  9.23$  9.91$  2.11$
  Q  0.6645  10.48$  9.06$  1.91$
  Q  -1.3290  9.79$  9.49$  1.66$
  Q  0.6645  18.6$  15.15$  12.53$
  Q  0.6645  17.56$  16.01$  12.92$
  Q  -1.3290  18.2$  15.53$  13.09$
  Q  0.6645  3.87$  18.61$  15.46$
  Q  0.6645  5.22$  18.12$  15.01$
  Q  -1.3290  4.4$  18.24$  14.93$
  Q  0.6645  13.01$  9.76$  5.53$
  Q  0.6645  14.06$  10.85$  5.08$
  Q  -1.3290  13.31$  10.42$  5.07$
  Q  0.6645  20.03$  10.87$  16.06$
  Q  0.6645  19.58$  12.04$  15.19$
  Q  -1.3290  19.98$  11.28$  15.33$
  Q  0.6645  4.33$  7.92$  2.33$
  Q  0.6645  3.18$  7.91$  1.46$
  Q  -1.3290  3.65$  7.58$  2.03$
  Q  0.6645  5.39$  15.99$  7.65$
  Q  0.6645  4.14$  15.24$  8.01$
  Q  -1.3290  4.79$  15.71$  8.18$
  Q  0.6645  3.02$  7.33$  14.49$
  Q  0.6645  3.52$  6.73$  15.81$
  Q  -1.3290  3.25$  7.34$  15.31$
  Q  0.6645  9.26$  10.04$  19.16$
  Q  0.6645  10.04$  8.68$  19.2$
  Q  -1.3290  9.9$  9.5$  18.99$
  Q  0.6645  5.14$  16.07$  16.29$
  Q  0.6645  5.75$  16.01$  17.64$
  Q  -1.3290  5.2$  15.79$  17.06$
  Q  0.6645  11.37$  16.86$  5.39$
  Q  0.6645  10.67$  18.02$  4.91$
  Q  -1.3290  11.31$  17.49$  4.91$
  Q  0.6645  7.04$  17.4$  2.69$
  Q  0.6645  6.81$  16.21$  3.71$
  Q  -1.3290  6.92$  17.04$  3.47$
  Q  0.6645  1.19$  15.7$  11.07$
  Q  0.6645  2.66$  15.99$  11$
  Q  -1.3290  1.99$  15.49$  11.07$
  Q  0.6645  9.44$  5.92$  19.97$
  Q  0.6645  8.26$  5.75$  19.04$
  Q  -1.3290  8.83$  5.48$  19.56$
  Q  0.6645  5.38$  9.98$  12.2$
  Q  0.6645  6.06$  10.71$  11.02$
  Q  -1.3290  6.01$  10.42$  11.83$
  Q  0.6645  6.82$  16.93$  13.91$
  Q  0.6645  5.45$  16.03$  13.54$
  Q  -1.3290  6.3$  16.22$  13.67$
  Q  0.6645  6.05$  9.94$  8.3$
  Q  0.6645  5.47$  8.52$  7.92$
  Q  -1.3290  5.82$  9.1$  8.41$
  Q  0.6645  18.85$  9.78$  13.95$
  Q  0.6645  19.19$  8.49$  13.05$
  Q  -1.3290  18.76$  9.21$  13.3$
  Q  0.6645  14$  19.87$  16.76$
  Q  0.6645  12.84$  19.83$  15.68$
  Q  -1.3290  13.65$  19.98$  15.97$
  Q  0.6645  10.41$  19.61$  17.58$
  Q  0.6645  10.51$  21.03$  18.18$
  Q  -1.3290  10.13$  20.3$  17.98$
  Q  0.6645  9.66$  11.82$  3.9$
  Q  0.6645  8.32$  11.66$  3.28$
  Q  -1.3290  9$  11.38$  3.66$
  Q  0.6645  2.58$  15.76$  13.01$
  Q  0.6645  3.46$  16.89$  13.86$
  Q  -1.3290  3.21$  16.09$  13.52$
  Q  0.6645  13.23$  15.71$  17.55$
  Q  0.6645  14.28$  16.76$  17.1$
  Q  -1.3290  13.51$  16.47$  17.31$
  Q  0.6645  11.28$  12.39$  6.36$
  Q  0.6645  11.03$  11.3$  5.44$
  Q  -1.3290  10.9$  12.07$  5.71$
  Q  0.6645  3.3$  4.37$  14.69$
  Q  0.6645  4.65$  4.06$  14.04$
  Q  -1.3290  4.1$  4.54$  14.49$
  Q  0.6645  14.13$  7.62$  20.19$
  Q  0.6645  13.23$  7.24$  18.89$
  Q  -1.3290  13.56$  7.2$  19.71$
  Q  0.6645  7.98$  15.41$  19.07$
  Q  0.6645  6.82$  15.16$  20.09$
  Q  -1.3290  7.17$  15.33$  19.32$
  Q  0.6645  0.16$  12.77$  7.08$
  Q  0.6645  1.54$  11.96$  7.48$
  Q  -1.3290  0.71$  12.1$  7.17$
  Q  0.6645  12.38$  15.48$  20.68$
  Q  0.6645  12.37$  14.37$  21.7$
  Q  -1.3290  12.02$  14.81$  21.1$
  Q  0.6645  13.61$  11.34$  18.78$
  Q  0.6645  14.03$  11.51$  17.36$
  Q  -1.3290  14.08$  11.66$  18.15$
  Q  0.6645  9.54$  2.41$  12.77$
  Q  0.6645  9.85$  2.83$  11.23$
  Q  -1.3290  9.4$  2.75$  11.96$
  Q  0.6645  11.14$  11.44$  21.52$
  Q  0.6645  10.05$  10.49$  22.31$
  Q  -1.3290  10.36$  11.14$  21.79$
  Q  0.6645  7.75$  2.39$  16.5$
  Q  0.6645  7.31$  2.89$  15.12$
  Q  -1.3290  7.79$  2.88$  15.81$
  Q  0.6645  16.35$  14.42$  20.46$
  Q  0.6645  16.09$  15.98$  20.79$
  Q  -1.3290  16.44$  15.28$  20.38$
  Q  0.6645  6.26$  1.76$  8.38$
  Q  0.6645  5.05$  0.98$  9.04$
  Q  -1.3290  5.54$  1.66$  8.87$
  Q  0.6645  11.01$  11.7$  2.31$
  Q  0.6645  12.32$  11.27$  2.95$
  Q  -1.3290  11.81$  11.81$  2.56$
  Q  0.6645  8.3$  8.49$  1.05$
  Q  0.6645  7.23$  8.2$  -0.12$
  Q  -1.3290  7.55$  8.23$  0.69$
  Q  0.6645  20.25$  17.87$  14.6$
  Q  0.6645  19.23$  16.97$  13.98$
  Q  -1.3290  19.62$  17.7$  14.05$
  Q  0.6645  15.49$  12.25$  1.33$
  Q  0.6645  15.54$  11.46$  2.72$
  Q  -1.3290  15.71$  11.6$  1.87$
  Q  0.6645  7.65$  4.66$  4.56$
  Q  0.6645  7.96$  4.77$  5.99$
  Q  -1.3290  8.06$  4.98$  5.21$
  Q  0.6645  7.84$  6.88$  4.77$
  Q  0.6645  8.47$  8.35$  5.08$
  Q  -1.3290  7.94$  7.75$  4.71$
  Q  0.6645  5.84$  1.96$  13.28$
  Q  0.6645  5.42$  1.95$  14.75$
  Q  -1.3290  5.72$  2.3$  14.06$
  Q  0.6645  15.71$  12.13$  4.98$
  Q  0.6645  16.25$  10.68$  5.14$
  Q  -1.3290  15.91$  11.36$  4.75$
  Q  0.6645  10.53$  19.11$  9.96$
  Q  0.6645  9.4$  18.28$  9.34$
  Q  -1.3290  10.15$  18.4$  9.76$
  Q  0.6645  5.66$  11.53$  13.65$
  Q  0.6645  4.29$  11.75$  14.43$
  Q  -1.3290  5.05$  11.96$  14.06$
  Q  0.6645  13.51$  3.84$  19.97$
  Q  0.6645  13.83$  5.3$  19.99$
  Q  -1.3290  14.01$  4.51$  20$
  Q  0.6645  15.37$  12.48$  11.65$
  Q  0.6645  16.64$  11.69$  11.03$
  Q  -1.3290  15.82$  11.95$  11.07$
  Q  0.6645  14.13$  18.97$  18.99$
  Q  0.6645  15.6$  19.45$  18.9$
  Q  -1.3290  14.78$  19.39$  18.66$
  Q  0.6645  17.18$  9.69$  19.85$
  Q  0.6645  17.88$  10.45$  20.86$
  Q  -1.3290  17.63$  10.34$  20.09$
  Q  0.6645  12.92$  16.16$  10.84$
  Q  0.6645  11.58$  15.46$  10.88$
  Q  -1.3290  12.23$  15.84$  11.25$
  Q  0.6645  3.96$  8.4$  18.87$
  Q  0.6645  3.75$  8.51$  17.47$
  Q  -1.3290  3.62$  8.14$  18.17$
  Q  0.6645  3.3$  13.77$  5.9$
  Q  0.6645  2.41$  14.85$  5.38$
  Q  -1.3290  2.8$  14.44$  5.98$
  Q  0.6645  14.94$  8.19$  16.18$
  Q  0.6645  15.87$  6.91$  15.84$
  Q  -1.3290  15.46$  7.5$  16.34$
  Q  0.6645  5.96$  11.46$  2.12$
  Q  0.6645  6.9$  12.63$  1.51$
  Q  -1.3290  6.65$  11.96$  1.99$
  Q  0.6645  10.59$  14.81$  17.82$
  Q  0.6645  9.37$  13.94$  17.85$
  Q  -1.3290  9.77$  14.67$  17.86$
  Q  0.6645  17.93$  18.15$  16.63$
  Q  0.6645  18.94$  17.01$  16.91$
  Q  -1.3290  18.23$  17.43$  17.02$
  Q  0.6645  19.53$  11.04$  6.16$
  Q  0.6645  18.88$  12.39$  6.05$
  Q  -1.3290  18.88$  11.56$  6.04$
  Q  0.6645  15.21$  16.78$  11.97$
  Q  0.6645  15.37$  17.71$  13.17$
  Q  -1.3290  15.56$  17.06$  12.67$
  Q  0.6645  15.32$  3.36$  15.93$
  Q  0.6645  14.21$  3.14$  14.81$
  Q  -1.3290  14.95$  2.97$  15.24$
  Q  0.6645  16.48$  7.94$  11.68$
  Q  0.6645  17.22$  6.62$  11.32$
  Q  -1.3290  16.61$  7.08$  11.68$
  Q  0.6645  9.47$  2.22$  8.81$
  Q  0.6645  8.97$  1.36$  7.72$
  Q  -1.3290  8.89$  1.94$  8.29$
  Q  0.6645  4.54$  12.08$  6.16$
  Q  0.6645  4.38$  12.01$  4.6$
  Q  -1.3290  4.61$  12.39$  5.36$
  Q  0.6645  11.57$  6.31$  4.93$
  Q  0.6645  10.6$  5.12$  4.73$
  Q  -1.3290  11.33$  5.51$  4.86$
  Q  0.6645  8.44$  3.49$  2.2$
  Q  0.6645  9.67$  2.66$  2.5$
  Q  -1.3290  9.23$  3.27$  2.12$
  Q  0.6645  12.34$  17.59$  20.15$
  Q  0.6645  13.08$  16.7$  19.05$
  Q  -1.3290  12.88$  17$  19.87$
  Q  0.6645  13.52$  21.01$  12.63$
  Q  0.6645  13.06$  22.35$  12.17$
  Q  -1.3290  12.95$  21.54$  12.38$
  Q  0.6645  20.44$  10.29$  10.64$
  Q  0.6645  20.91$  9.85$  9.37$
  Q  -1.3290  20.85$  9.79$  10.18$
  Q  0.6645  6.58$  15.97$  11.8$
  Q  0.6645  6.01$  15.6$  10.29$
  Q  -1.3290  6.56$  15.92$  10.9$
  Q  0.6645  13.33$  13.6$  5.35$
  Q  0.6645  12.1$  13.16$  4.52$
  Q  -1.3290  12.75$  13.66$  4.7$
  Q  0.6645  7.29$  2.22$  11.55$
  Q  0.6645  6.35$  1.53$  10.58$
  Q  -1.3290  6.74$  1.64$  11.32$
  Q  0.6645  10.03$  20.93$  13.26$
  Q  0.6645  11.48$  21.1$  13.37$
  Q  -1.3290  10.72$  20.97$  13.7$
  Q  0.6645  14.73$  19.14$  7.46$
  Q  0.6645  13.3$  19.17$  8.18$
  Q  -1.3290  14.08$  18.87$  8$
  Q  0.6645  9.95$  4.42$  18.49$
  Q  0.6645  11.39$  4.04$  18.44$
  Q  -1.3290  10.66$  4.23$  18.1$
  Q  0.6645  6.36$  8.58$  3.27$
  Q  0.6645  6.21$  9.05$  1.82$
  Q  -1.3290  5.95$  8.94$  2.62$
  Q  0.6645  15.94$  8.01$  18.51$
  Q  0.6645  17.13$  7.67$  19.47$
  Q  -1.3290  16.4$  8.04$  19.23$
  Q  0.6645  13.26$  2.86$  11.92$
  Q  0.6645  13.88$  2.2$  10.64$
  Q  -1.3290  13.34$  2.28$  11.31$
  Q  0.6645  6.44$  4.13$  7.8$
  Q  0.6645  7.86$  3.57$  7.77$
  Q  -1.3290  7.26$  4.17$  7.8$
  Q  0.6645  14.05$  2.92$  5.92$
  Q  0.6645  15.4$  2.49$  6.62$
  Q  -1.3290  14.65$  2.92$  6.55$
  Q  0.6645  4.95$  19.2$  8.32$
  Q  0.6645  6.26$  18.59$  7.96$
  Q  -1.3290  5.5$  18.88$  7.75$
  Q  0.6645  14.25$  16.95$  9.16$
  Q  0.6645  14.51$  15.54$  9.57$
  Q  -1.3290  14.32$  16.35$  9.72$
  Q  0.6645  18.07$  14.02$  3.28$
  Q  0.6645  17.38$  12.87$  3.5$
  Q  -1.3290  17.41$  13.65$  3.56$
  Q  0.6645  19.3$  5.47$  10.33$
  Q  0.6645  19.4$  6.73$  11.25$
  Q  -1.3290  19.06$  6.21$  10.7$
  Q  0.6645  16.7$  16.28$  17.18$
  Q  0.6645  16.09$  15.61$  18.46$
  Q  -1.3290  16.14$  15.77$  17.62$
  Q  0.6645  11.74$  16.22$  2.78$
  Q  0.6645  11.96$  14.7$  2.34$
  Q  -1.3290  11.53$  15.42$  2.51$
  Q  0.6645  15.5$  20.23$  12.86$
  Q  0.6645  14.71$  19.86$  14.18$
  Q  -1.3290  15.04$  19.77$  13.4$
  Q  0.6645  7.61$  19.05$  14.16$
  Q  0.6645  8.4$  18.17$  13.06$
  Q  -1.3290  7.78$  18.69$  13.4$
  Q  0.6645  5.27$  13.73$  17.22$
  Q  0.6645  5.37$  12.36$  16.33$
  Q  -1.3290  5.4$  12.87$  17.06$
  Q  0.6645  17.23$  5.33$  3.2$
  Q  0.6645  16.32$  6.32$  2.4$
  Q  -1.3290  16.6$  5.9$  3.09$
  Q  0.6645  17.28$  12.32$  15.63$
  Q  0.6645  17.39$  10.83$  16.02$
  Q  -1.3290  17.11$  11.49$  15.6$
  Q  0.6645  5.83$  18.91$  11.97$
  Q  0.6645  4.57$  18.86$  11.17$
  Q  -1.3290  5.13$  19.22$  11.68$
  Q  0.6645  5.01$  7.78$  11.19$
  Q  0.6645  4.52$  8.81$  10.24$
  Q  -1.3290  4.44$  8.29$  10.88$
  Q  0.6645  18.96$  11.99$  11.48$
  Q  0.6645  18.36$  10.63$  11.92$
  Q  -1.3290  18.61$  11.26$  11.35$
  Q  0.6645  15.43$  13.04$  6.79$
  Q  0.6645  15.51$  14.56$  6.29$
  Q  -1.3290  15.3$  13.71$  6.28$
  Q  0.6645  17.39$  8.35$  16.87$
  Q  0.6645  18.88$  8.8$  17.08$
  Q  -1.3290  18.09$  8.83$  16.75$
  Q  0.6645  7.69$  21.77$  11.64$
  Q  0.6645  7.9$  20.3$  12.1$
  Q  -1.3290  8.13$  21.05$  11.78$
  Q  0.6645  5.83$  3.21$  18.87$
  Q  0.6645  5.72$  4.44$  17.89$
  Q  -1.3290  5.43$  3.86$  18.47$
  Q  0.6645  12.09$  9.97$  19.92$
  Q  0.6645  13.13$  10.41$  20.96$
  Q  -1.3290  12.64$  10.48$  20.27$
  Q  0.6645  17.26$  11.75$  7.43$
  Q  0.6645  16.23$  11.18$  8.48$
  Q  -1.3290  16.54$  11.67$  7.84$
  Q  0.6645  17.79$  14.4$  6.78$
  Q  0.6645  17.85$  14.22$  5.23$
  Q  -1.3290  18.17$  14.27$  6.01$
  Q  0.6645  19.26$  7.65$  4.8$
  Q  0.6645  18.1$  8.5$  4.55$
  Q  -1.3290  18.86$  8.22$  4.36$
  Q  0.6645  4.33$  9.32$  20.92$
  Q  0.6645  5.65$  9.4$  20.15$
  Q  -1.3290  4.94$  9.03$  20.42$
  Q  0.6645  8.9$  14.47$  4.75$
  Q  0.6645  9.72$  14.8$  3.52$
  Q  -1.3290  9.06$  14.46$  3.93$
  Q  0.6645  11.31$  21.21$  11.16$
  Q  0.6645  9.87$  20.92$  10.81$
  Q  -1.3290  10.72$  20.95$  10.65$
  Q  0.6645  14.61$  6.79$  13.1$
  Q  0.6645  14.28$  7.85$  14.05$
  Q  -1.3290  14.19$  7.12$  13.73$
  Q  0.6645  3.86$  10.54$  16.43$
  Q  0.6645  5.01$  9.69$  15.83$
  Q  -1.3290  4.57$  10.03$  16.46$
  Q  0.6645  2.17$  9.24$  9.39$
  Q  0.6645  2.3$  8.49$  7.99$
  Q  -1.3290  2.42$  9.15$  8.58$
  Q  0.6645  7.25$  12.34$  18.03$
  Q  0.6645  8.02$  12.85$  19.25$
  Q  -1.3290  7.91$  12.49$  18.5$
  Q  0.6645  18.17$  14.49$  15.1$
  Q  0.6645  17.59$  14.11$  16.63$
  Q  -1.3290  18.09$  14.07$  15.9$
  Q  0.6645  5.81$  5.04$  15.58$
  Q  0.6645  7.22$  4.64$  16.08$
  Q  -1.3290  6.45$  5.04$  16.13$
  Q  0.6645  7.04$  6.13$  1.04$
  Q  0.6645  5.83$  5.5$  0.29$
  Q  -1.3290  6.47$  5.56$  0.88$
  Q  0.6645  14.86$  0.43$  8.58$
  Q  0.6645  14.07$  1.72$  8$
  Q  -1.3290  14.2$  0.99$  8.45$
  Q  0.6645  2.33$  12.07$  11.86$
  Q  0.6645  0.92$  11.53$  12.17$
  Q  -1.3290  1.47$  12.1$  11.86$
  Q  0.6645  -0.57$  10.74$  14.07$
  Q  0.6645  -0.01$  9.45$  13.18$
  Q  -1.3290  0.04$  10.19$  13.67$
  Q  0.6645  15.11$  16.99$  7.02$
  Q  0.6645  16.68$  16.59$  6.75$
  Q  -1.3290  15.87$  16.5$  7.01$
  Q  0.6645  12.35$  14.03$  19.09$
  Q  0.6645  13.32$  13.46$  18.04$
  Q  -1.3290  12.77$  14.01$  18.37$
  Q  0.6645  4.43$  3.38$  8.29$
  Q  0.6645  4.24$  4.9$  8.28$
  Q  -1.3290  4.46$  4.16$  7.95$
  Q  0.6645  7.76$  17.08$  15.83$
  Q  0.6645  6.78$  18.09$  16.64$
  Q  -1.3290  7.07$  17.62$  15.98$
  Q  0.6645  17.28$  7.71$  14.56$
  Q  0.6645  17.3$  6.63$  13.61$
  Q  -1.3290  17.41$  6.92$  14.37$
  Q  0.6645  14.67$  7.47$  6.99$
  Q  0.6645  14.27$  8.7$  7.8$
  Q  -1.3290  14.38$  8.26$  7.1$
  Q  0.6645  1.73$  7.44$  5.63$
  Q  0.6645  3.2$  7.34$  6.18$
  Q  -1.3290  2.34$  7.27$  6.21$
  Q  0.6645  17.97$  9.72$  9.61$
  Q  0.6645  17.74$  8.39$  8.7$
  Q  -1.3290  17.61$  9.2$  9$
  Q  0.6645  3.31$  6.88$  12.12$
  Q  0.6645  3.57$  5.88$  13.26$
  Q  -1.3290  3.1$  6.39$  12.79$
  Q  0.6645  9.92$  14.2$  21.13$
  Q  0.6645  9.49$  12.79$  21.41$
  Q  -1.3290  9.35$  13.57$  21.17$
  Q  0.6645  14.46$  12.9$  9.78$
  Q  0.6645  13.67$  13.95$  10.55$
  Q  -1.3290  13.98$  13.57$  9.86$
  Q  0.6645  10.24$  1.13$  14.76$
  Q  0.6645  9.63$  2.58$  15.03$
  Q  -1.3290  10.25$  1.99$  14.83$
  Q  0.6645  16.77$  4.22$  17.97$
  Q  0.6645  15.34$  4.63$  18.45$
  Q  -1.3290  15.93$  4.23$  17.97$
  Q  0.6645  3$  18.16$  10.08$
  Q  0.6645  4.08$  17.18$  9.39$
  Q  -1.3290  3.64$  17.57$  10.02$
  Q  0.6645  16.22$  6.16$  5.1$
  Q  0.6645  15.43$  5.12$  5.99$
  Q  -1.3290  15.92$  5.81$  5.83$
  Q  0.6645  9.52$  18.03$  20.5$
  Q  0.6645  9.38$  19.04$  19.32$
  Q  -1.3290  9.12$  18.51$  19.92$
  Q  0.6645  10.66$  6.64$  2.02$
  Q  0.6645  9.69$  5.52$  1.62$
  Q  -1.3290  10.19$  6.18$  1.5$
  Q  0.6645  12.11$  17.86$  16.84$
  Q  0.6645  10.7$  17.84$  16.24$
  Q  -1.3290  11.38$  18.19$  16.65$
  Q  0.6645  5.8$  13.69$  4.54$
  Q  0.6645  7$  14.26$  3.87$
  Q  -1.3290  6.26$  14.33$  4.29$
  Q  0.6645  17.28$  9.17$  6.73$
  Q  0.6645  16.01$  8.79$  6.07$
  Q  -1.3290  16.81$  9.02$  6.06$
  Q  0.6645  13.44$  2.94$  3.34$
  Q  0.6645  12.55$  4$  4.22$
  Q  -1.3290  12.91$  3.21$  3.97$
  Q  0.6645  2.61$  11.16$  3.54$
  Q  0.6645  3.47$  10.28$  2.74$
  Q  -1.3290  3.34$  10.96$  3.19$
  Q  0.6645  16.77$  15.28$  8.47$
  Q  0.6645  16.75$  13.8$  8.74$
  Q  -1.3290  17.12$  14.54$  8.63$
  Q  0.6645  3.52$  6.9$  9.92$
  Q  0.6645  2.45$  5.81$  9.53$
  Q  -1.3290  3.14$  6.28$  9.44$
  Q  0.6645  19.91$  14.14$  10.69$
  Q  0.6645  18.53$  14.43$  10.18$
  Q  -1.3290  19.09$  14.26$  10.76$
  Q  0.6645  16.27$  11.85$  20.4$
  Q  0.6645  15.1$  12.77$  19.88$
  Q  -1.3290  15.73$  12.5$  20.4$
  Q  0.6645  4.07$  12.03$  8.11$
  Q  0.6645  3.24$  10.72$  7.91$
  Q  -1.3290  3.49$  11.52$  7.71$
  Q  0.6645  14.64$  8.51$  0.63$
  Q  0.6645  14.92$  10.02$  1.17$
  Q  -1.3290  14.47$  9.33$  0.82$
  Q  0.6645  13.62$  6.61$  16.64$
  Q  0.6645  12.06$  6.65$  16.29$
  Q  -1.3290  12.78$  6.77$  16.75$
  Q  0.6645  11.81$  3.09$  14.28$
  Q  0.6645  12.29$  4.43$  13.59$
  Q  -1.3290  12.36$  3.57$  13.84$
  Q  0.6645  18.3$  5.32$  15.13$
  Q  0.6645  19.37$  4.33$  14.77$
  Q  -1.3290  18.72$  4.61$  15.19$
  Q  0.6645  4.96$  4.53$  4.47$
  Q  0.6645  4.56$  4.47$  6.03$
  Q  -1.3290  4.54$  4.74$  5.19$
  Q  0.6645  4.29$  13.05$  12.29$
  Q  0.6645  3.19$  13.83$  11.49$
  Q  -1.3290  3.85$  13.27$  11.61$
  Q  0.6645  2.26$  12.06$  15.71$
  Q  0.6645  1.94$  10.7$  15.36$
  Q  -1.3290  2.48$  11.28$  15.47$
  Q  0.6645  15.91$  3.31$  9.46$
  Q  0.6645  15.01$  4.15$  10.4$
  Q  -1.3290  15.47$  3.5$  10.15$
  Q  0.6645  8.93$  21.22$  16.53$
  Q  0.6645  9.35$  20.99$  14.96$
  Q  -1.3290  8.9$  21.31$  15.64$
  Q  0.6645  15.76$  2.7$  12.2$
  Q  0.6645  16.11$  2.84$  13.7$
  Q  -1.3290  16.18$  2.55$  12.92$
  Q  0.6645  15.59$  14.54$  3.4$
  Q  0.6645  14.1$  14.72$  3.59$
  Q  -1.3290  14.84$  14.95$  3.33$
  Q  0.6645  6.29$  3.11$  2.9$
  Q  0.6645  6.24$  4.65$  2.52$
  Q  -1.3290  6.32$  3.97$  3.04$
  Q  0.6645  12.47$  8.82$  3.73$
  Q  0.6645  12.89$  8.73$  2.3$
  Q  -1.3290  12.32$  8.74$  2.9$
  Q  0.6645  4.85$  8.29$  14.25$
  Q  0.6645  6.19$  8.71$  13.52$
  Q  -1.3290  5.52$  8.79$  14.02$
  Q  0.6645  7.53$  16.81$  8.01$
  Q  0.6645  7.38$  16.95$  9.46$
  Q  -1.3290  7.57$  17.23$  8.7$
  Q  0.6645  10.29$  7.35$  21.44$
  Q  0.6645  11.52$  7.18$  20.61$
  Q  -1.3290  10.72$  7.36$  20.75$
  Q  0.6645  6.22$  19.58$  18.23$
  Q  0.6645  7.39$  18.62$  18.8$
  Q  -1.3290  6.69$  18.84$  18.34$
  Q  0.6645  20.85$  8.18$  11.38$
  Q  0.6645  21.43$  7$  12.27$
  Q  -1.3290  20.97$  7.7$  12.08$
  Q  0.6645  12.96$  12.86$  1.64$
  Q  0.6645  14.13$  14.04$  1.59$
  Q  -1.3290  13.54$  13.44$  1.29$
*
