! NoMOPrint PrintBasis #MINIPRINT SMALLPRINT LARGEPRINT
! ALLPOP XYZFILE
#! BP86 3-21G   TightSCF
! ENGRAD
! B3LYP NormalPNO PModel #DecontractAux
#! VerySlowConv 
 %maxcore 5000
 %scf  maxiter   500  end 

%pal
    nprocs 32
end

%basis
    NewGTO O    # New basis for oxygen
        "aug-cc-pVTZ"
    end
    NewGTO C    # New basis for carbon
        "aug-cc-pVTZ"
    end
    NewGTO H    # New basis for hydrogen
        "cc-pVTZ"
    end
end

* xyz 0   1
  C  12.03  12.27  11.49  #1
  H  11.52  12.34  12.5  #2
  H  11.9  13.25  10.93  #3
  C  11.48  11.03  10.73  #4
  H  12.11  10.73  9.84  #5
  H  11.48  10.21  11.42  #6
  C  10.04  11.29  10.25  #7
  H  10.12  11.71  9.25  #8
  H  9.68  12.03  10.94  #9
  C  9.27  10.01  10.17  #10
  H  9.91  9.33  9.66  #11
  H  8.25  10.12  9.61  #12
  O  9.03  9.51  11.53  #13
  H  9.26  8.59  11.57  #14
  O  13.4  12.09  11.74  #15
  H  13.58  11.67  12.59  #16
  O  9.71  12.93  15.05  #17
  H  10.21  13.61  14.59  #18
  H  9.2  12.54  14.33  #19
  O  12.39  8.36  13.49  #20
  H  12.42  9.2  13.9  #21
  H  12.06  7.7  14.14  #22
  O  13.61  14.93  12.32  #23
  H  13.86  14.05  12.12  #24
  H  12.69  15.03  12.58  #25
  O  12.19  11.35  14.86  #26
  H  12.93  11.94  14.89  #27
  H  11.35  11.85  14.93  #28
  O  7.73  6.77  9.32  #29
  H  7.6  6.25  10.11  #30
  H  8.7  6.82  9.17  #31
  O  14.25  16.04  14.93  #32
  H  14.11  15.56  14.08  #33
  H  14.4  16.98  14.59  #34
  O  10.78  14.12  7.59  #35
  H  10.5  13.27  7.16  #36
  H  11.75  14.09  7.75  #37
  O  5.45  8.55  9.93  #38
  H  5.57  8.57  10.89  #39
  H  6.16  7.98  9.63  #40
  O  5.91  9.35  12.68  #41
  H  5.31  9.44  13.39  #42
  H  6.53  10.1  12.81  #43
  O  9.92  7.38  7.53  #44
  H  9.89  7.03  6.66  #45
  H  10.64  8.04  7.58  #46
  O  14.33  11.96  9.05  #47
  H  13.96  12.7  8.58  #48
  H  13.99  12.05  9.95  #49
  O  16.15  14.27  13.51  #50
  H  15.86  15.09  13.11  #51
  H  16.69  14.54  14.27  #52
  O  14.96  12.11  14.27  #53
  H  15.23  11.87  15.18  #54
  H  15.32  12.93  13.97  #55
  O  6.1  5.3  7.36  #56
  H  5.47  6  7.25  #57
  H  6.47  5.7  8.12  #58
  O  5.2  11.42  9.84  #59
  H  5.93  12.11  9.88  #60
  H  5.59  10.6  10.12  #61
  O  8.86  14.5  11.95  #62
  H  8.76  15.43  12.31  #63
  H  9.1  14.64  10.98  #64
  O  12.84  5.46  14.4  #65
  H  13.56  5.33  15.02  #66
  H  12.66  4.64  13.94  #67
  O  14.66  15.98  10  #68
  H  14.55  15.83  10.95  #69
  H  13.77  16.3  9.76  #70
  O  7.66  14.54  16.82  #71
  H  6.79  14.47  16.41  #72
  H  8.3  13.98  16.36  #73
  O  15.68  9.79  12.72  #74
  H  16.57  9.84  12.5  #75
  H  15.4  10.57  13.28  #76
  O  14.52  9.23  8.51  #77
  H  14.22  9.06  9.42  #78
  H  14.47  10.21  8.53  #79
  O  7.02  11.97  6.93  #80
  H  7.92  12.06  6.56  #81
  H  7.07  11.08  7.32  #82
  O  10.43  6.75  15.51  #83
  H  11.05  5.99  15.36  #84
  H  10.71  7.28  16.28  #85
  O  13.75  8.19  11.1  #86
  H  13.49  8.63  11.94  #87
  H  12.87  7.83  10.83  #88
  O  7.71  7.21  13.47  #89
  H  7.23  8  13.17  #90
  H  8.2  7.45  14.28  #91
  O  10.91  7.36  11.16  #92
  H  11.48  7.35  11.98  #93
  H  10.46  6.48  11.15  #94
  O  10.65  11.74  17.69  #95
  H  11.39  12.37  17.7  #96
  H  10.07  11.95  16.97  #97
  O  13.39  9.56  16.82  #98
  H  12.55  10.06  16.75  #99
  H  13.35  9.03  17.65  #100
  O  7.83  11.53  13.39  #101
  H  8.38  11.05  12.78  #102
  H  7.96  11.12  14.29  #103
  O  11.08  14.8  13.45  #104
  H  11  15.65  13.88  #105
  H  10.3  14.74  12.86  #106
  O  7.53  5.01  11.63  #107
  H  6.75  4.47  11.58  #108
  H  7.35  5.73  12.28  #109
  O  7  8.78  7.26  #110
  H  7.68  8.4  7.82  #111
  H  6.77  8.15  6.54  #112
  Q  0.6645  15.68$  16.6$  20.92$
  Q  0.6645  14.7$  15.65$  20.28$
  Q  -1.3290  15.43$  15.88$  20.6$
  Q  0.6645  9.8$  11.22$  5.21$
  Q  0.6645  9.18$  12.55$  4.72$
  Q  -1.3290  9.41$  11.98$  5.3$
  Q  0.6645  5.42$  6.81$  3$
  Q  0.6645  5.51$  5.88$  1.82$
  Q  -1.3290  5.8$  6.22$  2.51$
  Q  0.6645  11.91$  5.47$  1.72$
  Q  0.6645  12.1$  4.01$  2.23$
  Q  -1.3290  12.04$  4.85$  2.31$
  Q  0.6645  9.2$  9.32$  15.95$
  Q  0.6645  7.71$  9.3$  16.03$
  Q  -1.3290  8.46$  9.57$  15.74$
  Q  0.6645  19.32$  6.83$  13.31$
  Q  0.6645  19.62$  8.24$  13.84$
  Q  -1.3290  19.81$  7.46$  13.54$
  Q  0.6645  3.94$  4.96$  12.98$
  Q  0.6645  3.71$  3.53$  12.97$
  Q  -1.3290  4$  4.22$  13.35$
  Q  0.6645  8.71$  15.68$  2.36$
  Q  0.6645  7.61$  15.25$  3.35$
  Q  -1.3290  8.35$  15.6$  3.09$
  Q  0.6645  6.88$  1.24$  16.25$
  Q  0.6645  5.99$  1.8$  17.33$
  Q  -1.3290  6.67$  1.76$  16.88$
  Q  0.6645  13.07$  0.7$  7.63$
  Q  0.6645  11.99$  0.84$  8.76$
  Q  -1.3290  12.79$  0.75$  8.41$
  Q  0.6645  5.86$  18.56$  4.21$
  Q  0.6645  5.28$  18.19$  5.56$
  Q  -1.3290  5.89$  18.38$  5.02$
  Q  0.6645  15.48$  19.29$  10.41$
  Q  0.6645  16.26$  18.01$  11.27$
  Q  -1.3290  15.91$  18.84$  11.04$
  Q  0.6645  5.17$  2.49$  11.02$
  Q  0.6645  6.06$  2.73$  9.83$
  Q  -1.3290  5.87$  2.72$  10.64$
  Q  0.6645  15.12$  19.21$  3.88$
  Q  0.6645  14.22$  19.25$  5.11$
  Q  -1.3290  14.54$  19.54$  4.41$
  Q  0.6645  7.25$  9.37$  4.47$
  Q  0.6645  6.51$  10.48$  5.31$
  Q  -1.3290  6.67$  9.97$  4.63$
  Q  0.6645  13.2$  14.78$  6.53$
  Q  0.6645  14.32$  13.72$  6.35$
  Q  -1.3290  13.81$  14.22$  6.81$
  Q  0.6645  14.23$  16.6$  2.77$
  Q  0.6645  12.79$  16.96$  2.55$
  Q  -1.3290  13.45$  16.47$  2.84$
  Q  0.6645  2.69$  7.8$  6.31$
  Q  0.6645  1.86$  8.61$  5.52$
  Q  -1.3290  2.2$  7.91$  5.7$
  Q  0.6645  14.04$  4.86$  17.27$
  Q  0.6645  14.12$  4.09$  18.55$
  Q  -1.3290  13.73$  4.43$  17.93$
  Q  0.6645  2.81$  1.99$  10.99$
  Q  0.6645  3.17$  1.29$  12.14$
  Q  -1.3290  3.15$  1.97$  11.7$
  Q  0.6645  9.57$  3.19$  7.23$
  Q  0.6645  8.59$  3.83$  6.2$
  Q  -1.3290  8.87$  3.26$  6.76$
  Q  0.6645  12.54$  20.13$  16.7$
  Q  0.6645  11.43$  20.03$  15.58$
  Q  -1.3290  11.81$  19.91$  16.34$
  Q  0.6645  14.79$  2.32$  14.45$
  Q  0.6645  14.99$  2.91$  13.09$
  Q  -1.3290  15.18$  2.84$  13.9$
  Q  0.6645  4.26$  11.37$  3.83$
  Q  0.6645  4.03$  11.25$  5.41$
  Q  -1.3290  3.88$  11.48$  4.6$
  Q  0.6645  17.4$  21.15$  12.56$
  Q  0.6645  17.46$  20.02$  11.61$
  Q  -1.3290  17.76$  20.47$  12.22$
  Q  0.6645  17.87$  10.73$  18.8$
  Q  0.6645  19.03$  11.63$  18.23$
  Q  -1.3290  18.62$  10.9$  18.41$
  Q  0.6645  2.57$  14.75$  4.26$
  Q  0.6645  2.38$  13.25$  4.69$
  Q  -1.3290  2.14$  14.07$  4.58$
  Q  0.6645  6.53$  15.63$  18.3$
  Q  0.6645  5.26$  14.78$  18.44$
  Q  -1.3290  5.7$  15.5$  18.44$
  Q  0.6645  4.57$  7.6$  18.47$
  Q  0.6645  3.85$  7.55$  19.76$
  Q  -1.3290  4.53$  7.63$  19.31$
  Q  0.6645  13.89$  11.19$  20.68$
  Q  0.6645  14.57$  10.55$  21.96$
  Q  -1.3290  14.48$  11.11$  21.31$
  Q  0.6645  2.71$  10.49$  14.9$
  Q  0.6645  1.3$  10.25$  15.59$
  Q  -1.3290  1.87$  10.19$  14.95$
  Q  0.6645  17.64$  4.31$  8.03$
  Q  0.6645  18.51$  5.51$  7.66$
  Q  -1.3290  18.2$  4.9$  8.17$
  Q  0.6645  10.95$  4.51$  4.09$
  Q  0.6645  9.83$  4.93$  5.08$
  Q  -1.3290  10.53$  4.5$  4.82$
  Q  0.6645  11.33$  10.12$  3.71$
  Q  0.6645  11.58$  9.46$  5.09$
  Q  -1.3290  11.12$  9.69$  4.42$
  Q  0.6645  7.38$  5.53$  5.94$
  Q  0.6645  8.14$  6.39$  4.89$
  Q  -1.3290  8.03$  5.73$  5.41$
  Q  0.6645  9.93$  14.95$  8.87$
  Q  0.6645  8.84$  16.13$  8.98$
  Q  -1.3290  9.46$  15.58$  9.23$
  Q  0.6645  6.55$  3.26$  15.54$
  Q  0.6645  5.74$  4.2$  14.63$
  Q  -1.3290  6.46$  3.92$  15.01$
  Q  0.6645  20.47$  13.1$  19.3$
  Q  0.6645  18.96$  13.37$  18.9$
  Q  -1.3290  19.81$  13.31$  18.79$
  Q  0.6645  11.31$  0.22$  13.49$
  Q  0.6645  11.53$  1.56$  12.71$
  Q  -1.3290  11.76$  0.84$  13.08$
  Q  0.6645  0.89$  6.61$  6.8$
  Q  0.6645  -0.04$  5.65$  7.57$
  Q  -1.3290  0.18$  6.4$  7.25$
  Q  0.6645  21.91$  7.5$  8.75$
  Q  0.6645  22.31$  8.49$  9.96$
  Q  -1.3290  21.85$  7.88$  9.55$
  Q  0.6645  15.48$  6.36$  7.52$
  Q  0.6645  15.15$  5.31$  6.59$
  Q  -1.3290  15.2$  6.1$  6.82$
  Q  0.6645  8.07$  5.53$  18.06$
  Q  0.6645  8.52$  5.44$  19.57$
  Q  -1.3290  8.34$  5.16$  18.79$
  Q  0.6645  16.39$  12.02$  6$
  Q  0.6645  16.23$  13.33$  5.36$
  Q  -1.3290  15.97$  12.55$  5.56$
  Q  0.6645  4.86$  19.28$  9.76$
  Q  0.6645  6.32$  18.98$  10.13$
  Q  -1.3290  5.71$  19.37$  9.69$
  Q  0.6645  12.84$  11.22$  2.6$
  Q  0.6645  12.04$  10.62$  1.46$
  Q  -1.3290  12.15$  11.08$  2.14$
  Q  0.6645  3.9$  16.41$  4.48$
  Q  0.6645  4.84$  15.54$  3.72$
  Q  -1.3290  4.11$  15.84$  3.91$
  Q  0.6645  17.77$  9.96$  6.83$
  Q  0.6645  16.49$  10.02$  7.63$
  Q  -1.3290  17.02$  10.23$  7.01$
  Q  0.6645  11.28$  16.56$  9.91$
  Q  0.6645  12.16$  17.69$  10.67$
  Q  -1.3290  11.91$  17.12$  10.02$
  Q  0.6645  12.23$  6.49$  18.66$
  Q  0.6645  12.59$  7.49$  19.83$
  Q  -1.3290  12.36$  7.23$  19.03$
  Q  0.6645  8.41$  14.95$  19.63$
  Q  0.6645  7.53$  14.01$  20.54$
  Q  -1.3290  8.23$  14.46$  20.31$
  Q  0.6645  19.3$  8.11$  6.5$
  Q  0.6645  20.07$  9.29$  6.11$
  Q  -1.3290  19.49$  8.89$  6.54$
  Q  0.6645  9.59$  8.67$  17.94$
  Q  0.6645  11.04$  8.27$  18.29$
  Q  -1.3290  10.42$  8.55$  17.77$
  Q  0.6645  9.44$  18.49$  2.56$
  Q  0.6645  8.95$  18.07$  3.9$
  Q  -1.3290  9.39$  18.55$  3.39$
  Q  0.6645  5.35$  17.92$  16.14$
  Q  0.6645  4.62$  17.2$  17.34$
  Q  -1.3290  4.67$  17.69$  16.66$
  Q  0.6645  3.06$  2.65$  8.26$
  Q  0.6645  3.14$  3.37$  6.94$
  Q  -1.3290  3.15$  3.33$  7.79$
  Q  0.6645  16.32$  11.81$  3.29$
  Q  0.6645  16.55$  12.59$  2.05$
  Q  -1.3290  16.64$  11.93$  2.54$
  Q  0.6645  18.48$  9.46$  11.19$
  Q  0.6645  18.71$  10.35$  12.53$
  Q  -1.3290  18.33$  10.06$  11.78$
  Q  0.6645  7.67$  1.77$  11.31$
  Q  0.6645  8.86$  2.23$  12.24$
  Q  -1.3290  8.43$  1.74$  11.65$
  Q  0.6645  5.25$  14.82$  7.58$
  Q  0.6645  6.19$  13.73$  7.31$
  Q  -1.3290  5.94$  14.49$  7.22$
  Q  0.6645  3.13$  15.89$  9.15$
  Q  0.6645  4.55$  16.01$  9.63$
  Q  -1.3290  3.97$  16.05$  9.07$
  Q  0.6645  4.62$  13.55$  16.34$
  Q  0.6645  4.88$  14.02$  14.88$
  Q  -1.3290  5.08$  13.72$  15.64$
  Q  0.6645  7.48$  16.93$  16.64$
  Q  0.6645  7.64$  18.26$  16.01$
  Q  -1.3290  7.32$  17.51$  16.07$
  Q  0.6645  16.11$  14.91$  9.51$
  Q  0.6645  17.27$  13.92$  9.64$
  Q  -1.3290  16.91$  14.7$  9.53$
  Q  0.6645  18.35$  4.89$  12.37$
  Q  0.6645  17.02$  5.59$  12.85$
  Q  -1.3290  17.83$  5.32$  12.9$
  Q  0.6645  14.11$  3$  7.63$
  Q  0.6645  13.46$  3.22$  6.23$
  Q  -1.3290  13.49$  3.21$  7.05$
  Q  0.6645  13.61$  12.7$  18.56$
  Q  0.6645  13.74$  13.86$  17.64$
  Q  -1.3290  13.38$  13.44$  18.25$
  Q  0.6645  10.12$  13.59$  2.23$
  Q  0.6645  10.46$  12.11$  2.33$
  Q  -1.3290  10.01$  12.82$  2.52$
  Q  0.6645  17.29$  11.4$  10.69$
  Q  0.6645  16.21$  11.76$  9.71$
  Q  -1.3290  16.87$  11.93$  10.19$
  Q  0.6645  7.04$  2.59$  7.32$
  Q  0.6645  5.71$  3.22$  7.64$
  Q  -1.3290  6.24$  2.6$  7.57$
  Q  0.6645  7.93$  17.2$  14.24$
  Q  0.6645  9.26$  17.12$  13.68$
  Q  -1.3290  8.44$  17.13$  13.64$
  Q  0.6645  17.07$  14.49$  16.65$
  Q  0.6645  18.5$  14.85$  16.47$
  Q  -1.3290  17.79$  14.5$  16.2$
  Q  0.6645  1.2$  6.37$  12.22$
  Q  0.6645  0.66$  6.44$  10.77$
  Q  -1.3290  1.17$  6.19$  11.38$
  Q  0.6645  13.53$  18.15$  12.57$
  Q  0.6645  12.49$  19.15$  12.24$
  Q  -1.3290  12.76$  18.38$  12.38$
  Q  0.6645  17.4$  15.9$  11.27$
  Q  0.6645  17.68$  16.48$  12.67$
  Q  -1.3290  17.25$  16.36$  11.94$
  Q  0.6645  14.74$  4.57$  11.67$
  Q  0.6645  14.54$  3.37$  10.58$
  Q  -1.3290  14.5$  3.74$  11.37$
  Q  0.6645  8.44$  18.55$  10.78$
  Q  0.6645  7.86$  18.38$  12.31$
  Q  -1.3290  7.83$  18.48$  11.44$
  Q  0.6645  16.8$  17.09$  2.7$
  Q  0.6645  16.5$  16.89$  4.26$
  Q  -1.3290  16.49$  17.3$  3.49$
  Q  0.6645  1.19$  11.97$  7.88$
  Q  0.6645  1.06$  10.84$  8.96$
  Q  -1.3290  1.35$  11.23$  8.24$
  Q  0.6645  3.7$  8$  4.28$
  Q  0.6645  5.09$  8.46$  4.05$
  Q  -1.3290  4.36$  8.18$  3.8$
  Q  0.6645  16.37$  11.16$  17.45$
  Q  0.6645  15.17$  10.58$  16.83$
  Q  -1.3290  15.72$  11.19$  16.93$
  Q  0.6645  16.39$  15.98$  6.38$
  Q  0.6645  17.65$  15.46$  5.7$
  Q  -1.3290  16.83$  15.62$  5.75$
  Q  0.6645  20.64$  10.29$  15.62$
  Q  0.6645  21.31$  10.16$  17$
  Q  -1.3290  21.18$  10.49$  16.22$
  Q  0.6645  5.98$  6.67$  14.31$
  Q  0.6645  4.64$  7.16$  13.77$
  Q  -1.3290  5.17$  6.9$  14.39$
  Q  0.6645  3.02$  13.56$  17.86$
  Q  0.6645  4.04$  12.62$  18.61$
  Q  -1.3290  3.76$  13.16$  18.01$
  Q  0.6645  6.23$  13.97$  5.22$
  Q  0.6645  5.72$  13.32$  3.91$
  Q  -1.3290  6.15$  13.9$  4.37$
  Q  0.6645  8.17$  8.06$  0.63$
  Q  0.6645  9.64$  8.57$  0.94$
  Q  -1.3290  8.95$  8.11$  1.07$
  Q  0.6645  5.11$  11.76$  15.24$
  Q  0.6645  4.36$  11.43$  13.96$
  Q  -1.3290  4.68$  11.28$  14.74$
  Q  0.6645  3.03$  17.91$  6.24$
  Q  0.6645  4$  17.06$  7.11$
  Q  -1.3290  3.61$  17.32$  6.38$
  Q  0.6645  18.42$  13.98$  20.51$
  Q  0.6645  17$  14.49$  20.26$
  Q  -1.3290  17.69$  14$  20.09$
  Q  0.6645  3.51$  17.1$  15.12$
  Q  0.6645  3.09$  17.11$  13.71$
  Q  -1.3290  3.04$  16.9$  14.5$
  Q  0.6645  8.5$  21.75$  12.48$
  Q  0.6645  7.99$  20.27$  12.14$
  Q  -1.3290  8.22$  20.95$  12.65$
  Q  0.6645  -0.01$  7.48$  14.07$
  Q  0.6645  1.26$  8.26$  14.17$
  Q  -1.3290  0.84$  7.56$  14.11$
  Q  0.6645  4.65$  9.49$  19.17$
  Q  0.6645  5.3$  10.82$  18.8$
  Q  -1.3290  4.72$  10.33$  19.14$
  Q  0.6645  12.94$  16.25$  4.78$
  Q  0.6645  11.64$  16.17$  5.57$
  Q  -1.3290  12.47$  16.13$  5.47$
  Q  0.6645  11.44$  3.9$  11.66$
  Q  0.6645  12.83$  3.57$  12.04$
  Q  -1.3290  12.04$  3.66$  12.21$
  Q  0.6645  6.87$  13.19$  12.77$
  Q  0.6645  5.42$  13.18$  12.17$
  Q  -1.3290  6.12$  13.51$  12.49$
  Q  0.6645  13.18$  9.04$  7.48$
  Q  0.6645  12.51$  8.2$  6.32$
  Q  -1.3290  12.6$  8.86$  6.85$
  Q  0.6645  16.44$  9.03$  19.74$
  Q  0.6645  15.69$  10.38$  20.06$
  Q  -1.3290  16.22$  9.84$  19.63$
  Q  0.6645  2.88$  17.79$  11.49$
  Q  0.6645  4.03$  16.82$  11.83$
  Q  -1.3290  3.24$  17.16$  11.89$
  Q  0.6645  7.36$  8.39$  18.2$
  Q  0.6645  7.99$  8.28$  19.59$
  Q  -1.3290  7.94$  8.57$  18.78$
  Q  0.6645  9.21$  11.87$  19.54$
  Q  0.6645  8.6$  10.41$  19.4$
  Q  -1.3290  8.69$  11.22$  19.67$
  Q  0.6645  1.25$  10.56$  6.26$
  Q  0.6645  1.98$  10.68$  4.83$
  Q  -1.3290  1.4$  10.41$  5.42$
  Q  0.6645  8.64$  3.76$  13.93$
  Q  0.6645  10.15$  3.69$  13.57$
  Q  -1.3290  9.35$  3.38$  13.7$
  Q  0.6645  0.88$  11.24$  13.54$
  Q  0.6645  0.02$  12.48$  13.16$
  Q  -1.3290  0.37$  11.74$  13.02$
  Q  0.6645  17.37$  8.67$  16.35$
  Q  0.6645  18.47$  9.41$  17.19$
  Q  -1.3290  18.18$  8.83$  16.63$
  Q  0.6645  8.78$  6.19$  16.15$
  Q  0.6645  7.39$  5.46$  16.06$
  Q  -1.3290  7.93$  6.06$  16.34$
  Q  0.6645  6.16$  10.92$  2.91$
  Q  0.6645  5.47$  11.08$  1.55$
  Q  -1.3290  5.71$  11.29$  2.32$
  Q  0.6645  18.77$  10.07$  14.97$
  Q  0.6645  19.79$  11$  14.19$
  Q  -1.3290  19.34$  10.29$  14.35$
  Q  0.6645  20.57$  14$  13.28$
  Q  0.6645  20.27$  15.25$  12.39$
  Q  -1.3290  20.69$  14.56$  12.64$
  Q  0.6645  21.83$  10.97$  11.19$
  Q  0.6645  20.94$  9.94$  10.41$
  Q  -1.3290  21.48$  10.6$  10.5$
  Q  0.6645  15.48$  16.89$  8.6$
  Q  0.6645  15.23$  17.93$  7.55$
  Q  -1.3290  15.71$  17.4$  7.98$
  Q  0.6645  18.74$  11.94$  9.41$
  Q  0.6645  20.25$  11.54$  9.26$
  Q  -1.3290  19.53$  11.85$  9.06$
  Q  0.6645  1.02$  14.35$  12.26$
  Q  0.6645  2.09$  15.38$  12.03$
  Q  -1.3290  1.83$  14.61$  12.23$
  Q  0.6645  11.99$  5.52$  5.72$
  Q  0.6645  13.1$  5.94$  6.67$
  Q  -1.3290  12.38$  6.05$  6.26$
  Q  0.6645  9.51$  16.33$  6.42$
  Q  0.6645  9.36$  16.13$  4.95$
  Q  -1.3290  9.72$  16.44$  5.65$
  Q  0.6645  12.76$  19.09$  6.64$
  Q  0.6645  13.11$  17.7$  6.75$
  Q  -1.3290  13.21$  18.47$  6.94$
  Q  0.6645  19.36$  5.35$  5.13$
  Q  0.6645  17.83$  5.8$  5.43$
  Q  -1.3290  18.69$  5.71$  5.55$
  Q  0.6645  9.68$  1.1$  3.57$
  Q  0.6645  10.24$  2.47$  3.97$
  Q  -1.3290  9.89$  1.9$  3.45$
  Q  0.6645  15.98$  8.03$  14.42$
  Q  0.6645  15.14$  8.2$  15.66$
  Q  -1.3290  15.81$  7.91$  15.23$
  Q  0.6645  15.03$  7.96$  5.88$
  Q  0.6645  15.79$  9.22$  5.65$
  Q  -1.3290  15.34$  8.56$  5.43$
  Q  0.6645  12.42$  20.55$  10.66$
  Q  0.6645  11.78$  21.35$  11.64$
  Q  -1.3290  11.85$  20.68$  11.24$
  Q  0.6645  12.33$  13.37$  2.35$
  Q  0.6645  12.38$  14.9$  2.25$
  Q  -1.3290  12.35$  14.11$  1.94$
  Q  0.6645  17.55$  6.9$  3.37$
  Q  0.6645  16.24$  7.33$  4.19$
  Q  -1.3290  16.79$  6.8$  3.74$
  Q  0.6645  19.47$  17.79$  12.26$
  Q  0.6645  20.2$  17.37$  13.66$
  Q  -1.3290  19.73$  17.3$  12.93$
  Q  0.6645  4.58$  6.17$  11.03$
  Q  0.6645  3.35$  6.59$  11.6$
  Q  -1.3290  4.12$  6.48$  11.65$
  Q  0.6645  3.32$  9.24$  9.65$
  Q  0.6645  2.74$  7.84$  9.87$
  Q  -1.3290  2.74$  8.68$  9.88$
  Q  0.6645  16.98$  6.37$  9.03$
  Q  0.6645  15.92$  7.64$  9.35$
  Q  -1.3290  16.22$  6.8$  9.3$
  Q  0.6645  10.33$  -0.43$  9.83$
  Q  0.6645  9.75$  0.9$  9.93$
  Q  -1.3290  10.21$  0.33$  9.53$
  Q  0.6645  11.73$  12.11$  20.33$
  Q  0.6645  11.53$  11.14$  19.39$
  Q  -1.3290  11.99$  11.44$  19.94$
  Q  0.6645  2.48$  5.82$  9.56$
  Q  0.6645  3.29$  5.19$  8.6$
  Q  -1.3290  3.13$  5.8$  9.08$
  Q  0.6645  14.75$  1.59$  9.17$
  Q  0.6645  16.15$  1.99$  9.41$
  Q  -1.3290  15.41$  2.07$  9.05$
  Q  0.6645  12.9$  15.34$  19.04$
  Q  0.6645  13.78$  16.38$  18.29$
  Q  -1.3290  13.13$  16.12$  18.78$
  Q  0.6645  21.02$  15.65$  16.56$
  Q  0.6645  20.32$  14.79$  17.8$
  Q  -1.3290  20.36$  15.35$  17.1$
  Q  0.6645  19.49$  13.86$  6.68$
  Q  0.6645  19.47$  12.52$  7.15$
  Q  -1.3290  19.64$  13.09$  6.57$
  Q  0.6645  3.96$  7.19$  7.99$
  Q  0.6645  4.56$  8.48$  7.64$
  Q  -1.3290  4.29$  7.72$  7.46$
  Q  0.6645  17.54$  18.21$  8.09$
  Q  0.6645  18.69$  18.97$  7.08$
  Q  -1.3290  18.25$  18.76$  7.82$
  Q  0.6645  3.24$  5.7$  16.89$
  Q  0.6645  4.55$  6.07$  16.2$
  Q  -1.3290  4.09$  5.87$  16.89$
  Q  0.6645  9.37$  4.46$  10.89$
  Q  0.6645  10.51$  4.47$  9.75$
  Q  -1.3290  10.16$  4.6$  10.53$
  Q  0.6645  5.82$  15.39$  11.88$
  Q  0.6645  6.36$  16.85$  11.35$
  Q  -1.3290  5.82$  16.14$  11.41$
  Q  0.6645  3.31$  10.42$  1.88$
  Q  0.6645  3.09$  9.05$  2.52$
  Q  -1.3290  2.88$  9.79$  2.18$
  Q  0.6645  3.01$  12.86$  12.15$
  Q  0.6645  3.76$  11.75$  11.39$
  Q  -1.3290  3.58$  12.25$  12.05$
  Q  0.6645  16.52$  18.08$  17.94$
  Q  0.6645  16.9$  17.18$  19.01$
  Q  -1.3290  16.72$  17.34$  18.23$
  Q  0.6645  7.49$  17.36$  19.1$
  Q  0.6645  8.97$  17.13$  18.41$
  Q  -1.3290  8.16$  16.94$  18.72$
  Q  0.6645  6.54$  19.4$  7.82$
  Q  0.6645  6.76$  19.7$  6.25$
  Q  -1.3290  6.97$  19.65$  7.09$
  Q  0.6645  7.36$  17.41$  6.74$
  Q  0.6645  7.04$  15.97$  7.22$
  Q  -1.3290  7.42$  16.76$  7.25$
  Q  0.6645  8.41$  12.76$  1.68$
  Q  0.6645  6.93$  12.43$  1.51$
  Q  -1.3290  7.65$  12.76$  1.28$
  Q  0.6645  14.34$  9.92$  3.99$
  Q  0.6645  14.46$  11.37$  4.56$
  Q  -1.3290  14.22$  10.77$  4$
  Q  0.6645  4.92$  5.07$  18.74$
  Q  0.6645  6.22$  4.4$  18.93$
  Q  -1.3290  5.42$  4.51$  19.11$
  Q  0.6645  19.54$  15.92$  7.71$
  Q  0.6645  18.2$  15.34$  7.85$
  Q  -1.3290  18.86$  15.57$  7.43$
  Q  0.6645  5.74$  8.3$  16.1$
  Q  0.6645  5.67$  9.77$  16.66$
  Q  -1.3290  5.87$  8.95$  16.66$
  Q  0.6645  15.15$  19.13$  13.13$
  Q  0.6645  15.76$  18.36$  14.31$
  Q  -1.3290  15.13$  18.66$  13.85$
  Q  0.6645  4.85$  11.13$  7.74$
  Q  0.6645  3.31$  11.09$  7.73$
  Q  -1.3290  4.09$  10.97$  7.38$
  Q  0.6645  7.18$  4.55$  3.26$
  Q  0.6645  8.23$  3.34$  3.27$
  Q  -1.3290  7.69$  3.93$  2.96$
  Q  0.6645  10.85$  18.98$  5.06$
  Q  0.6645  10.81$  20.1$  6.19$
  Q  -1.3290  11.19$  19.6$  5.59$
  Q  0.6645  10.56$  3.92$  17.36$
  Q  0.6645  12.01$  3.83$  17.23$
  Q  -1.3290  11.24$  3.86$  16.91$
  Q  0.6645  8.7$  8.17$  3.03$
  Q  0.6645  9.46$  8.59$  4.21$
  Q  -1.3290  8.83$  8.22$  3.84$
  Q  0.6645  15.79$  6$  11.09$
  Q  0.6645  14.85$  6.79$  12.09$
  Q  -1.3290  15.37$  6.15$  11.81$
  Q  0.6645  19.92$  8.18$  9.68$
  Q  0.6645  19.3$  9.07$  8.68$
  Q  -1.3290  19.32$  8.67$  9.43$
  Q  0.6645  11.6$  17.09$  17.65$
  Q  0.6645  11$  18.45$  17.26$
  Q  -1.3290  10.98$  17.63$  17.46$
  Q  0.6645  19.24$  7.29$  17.31$
  Q  0.6645  20.37$  6.13$  17.33$
  Q  -1.3290  19.73$  6.65$  17.65$
  Q  0.6645  9.55$  20.77$  14.24$
  Q  0.6645  10.1$  21.88$  15.03$
  Q  -1.3290  10.16$  21.2$  14.57$
  Q  0.6645  11.85$  3.86$  7.93$
  Q  0.6645  11.05$  5.01$  7.63$
  Q  -1.3290  11.17$  4.31$  7.97$
  Q  0.6645  14.93$  15.3$  16.24$
  Q  0.6645  15.54$  15.89$  17.57$
  Q  -1.3290  15.14$  15.31$  17.09$
  Q  0.6645  19.41$  13.28$  15.18$
  Q  0.6645  20.57$  12.47$  15.57$
  Q  -1.3290  20.07$  12.79$  15.02$
  Q  0.6645  10.24$  18.46$  9.35$
  Q  0.6645  8.99$  19.2$  8.7$
  Q  -1.3290  9.49$  18.89$  9.33$
  Q  0.6645  3.19$  3.16$  14.93$
  Q  0.6645  1.84$  2.5$  14.49$
  Q  -1.3290  2.62$  2.54$  14.89$
  Q  0.6645  9.18$  1.24$  16.85$
  Q  0.6645  10.25$  2.18$  16.27$
  Q  -1.3290  9.9$  1.47$  16.44$
  Q  0.6645  7.36$  11.88$  18.57$
  Q  0.6645  6.81$  12.75$  17.51$
  Q  -1.3290  6.76$  12.09$  18.01$
  Q  0.6645  18.47$  18.76$  15.27$
  Q  0.6645  17.8$  19.48$  14.08$
  Q  -1.3290  17.88$  19.22$  14.89$
  Q  0.6645  6.82$  14.58$  9.34$
  Q  0.6645  7.08$  13.93$  10.7$
  Q  -1.3290  7.02$  13.94$  9.85$
  Q  0.6645  19.45$  4.42$  15.78$
  Q  0.6645  18.31$  4.75$  14.66$
  Q  -1.3290  18.66$  4.42$  15.43$
  Q  0.6645  15.96$  5.84$  15.57$
  Q  0.6645  15.62$  4.29$  15.42$
  Q  -1.3290  15.59$  5.08$  15.79$
  Q  0.6645  11.38$  17.68$  13.58$
  Q  0.6645  11.24$  17.51$  15.11$
  Q  -1.3290  11.04$  17.41$  14.31$
  Q  0.6645  13.84$  20.71$  8.88$
  Q  0.6645  13.31$  19.24$  8.95$
  Q  -1.3290  13.7$  19.96$  9.19$
  Q  0.6645  1.61$  14.75$  10.07$
  Q  0.6645  1.24$  14.74$  8.59$
  Q  -1.3290  1.54$  15.09$  9.3$
*
