! NoMOPrint PrintBasis #MINIPRINT SMALLPRINT LARGEPRINT
! ALLPOP XYZFILE
#! BP86 3-21G   TightSCF
! ENGRAD
! B3LYP NormalPNO PModel #DecontractAux
#! VerySlowConv 
 %maxcore 5000
 %scf  maxiter   500  end 

%pal
    nprocs 32
end

%basis
    NewGTO O    # New basis for oxygen
        "aug-cc-pVTZ"
    end
    NewGTO C    # New basis for carbon
        "aug-cc-pVTZ"
    end
    NewGTO H    # New basis for hydrogen
        "cc-pVTZ"
    end
end

* xyz 0   1
  C  10.92  11.3  9.01  #1
  H  11.49  12.25  8.74  #2
  H  9.87  11.59  9.18  #3
  C  11.49  10.5  10.17  #4
  H  11.12  9.46  10.39  #5
  H  12.59  10.36  9.97  #6
  C  11.36  11.2  11.53  #7
  H  11.58  12.34  11.52  #8
  H  12.07  10.69  12.23  #9
  C  10.02  11.11  12.15  #10
  H  9.21  10.98  11.34  #11
  H  9.73  11.97  12.7  #12
  O  9.82  9.98  13.1  #13
  H  10.08  10.16  14.02  #14
  O  10.87  10.49  7.77  #15
  H  10.25  9.74  7.94  #16
  O  13.14  9.38  6.8  #17
  H  12.27  9.88  6.96  #18
  H  13.03  8.9  5.95  #19
  O  9.12  14.1  9.96  #20
  H  8.87  13.55  9.21  #21
  H  9.9  14.56  9.71  #22
  O  9.08  14.35  12.97  #23
  H  9.87  14.86  13.15  #24
  H  9.02  14.29  12.01  #25
  O  13.82  13.27  12.57  #26
  H  13.6  13.73  11.78  #27
  H  14.74  13.54  12.68  #28
  O  13.48  14.15  9.98  #29
  H  14.12  14.81  9.76  #30
  H  12.61  14.6  9.75  #31
  O  7.85  12.71  7.83  #32
  H  7.38  11.97  8.27  #33
  H  7.63  12.78  6.9  #34
  O  9.21  12.86  15.21  #35
  H  9.03  13.45  14.45  #36
  H  8.57  12.13  15.1  #37
  O  8.36  7.41  13.32  #38
  H  9  8.1  13.06  #39
  H  8.86  6.71  13.81  #40
  O  14.11  8.47  11.76  #41
  H  14.97  8.37  11.23  #42
  H  14.23  9.37  12  #43
  O  7.84  10.74  16.17  #44
  H  7.6  10.78  17.1  #45
  H  8.49  10.05  16.1  #46
  O  14.66  11.69  8.93  #47
  H  14.72  12.07  8.02  #48
  H  14.22  12.34  9.5  #49
  O  15.96  9.09  6.28  #50
  H  15.1  8.96  6.57  #51
  H  16.54  8.37  6.57  #52
  O  13.18  14.34  14.92  #53
  H  13.41  13.9  14.08  #54
  H  12.44  13.76  15.24  #55
  O  6.48  9.05  14.19  #56
  H  7.4  8.79  14.17  #57
  H  6.44  9.81  14.79  #58
  O  12.94  7.79  9.29  #59
  H  13.1  8.15  10.12  #60
  H  13.17  8.57  8.75  #61
  O  10.09  7.08  9.95  #62
  H  9.83  6.17  10.25  #63
  H  11.03  7.09  9.89  #64
  O  11.24  12.09  5.48  #65
  H  10.95  13.04  5.43  #66
  H  10.9  11.74  6.32  #67
  O  11.27  15.56  9.03  #68
  H  11.53  15.81  8.14  #69
  H  11.36  16.37  9.52  #70
  O  15.63  16.1  9.07  #71
  H  15.61  16.47  8.16  #72
  H  16.52  15.72  9.27  #73
  O  13.1  8.27  3.88  #74
  H  13.83  8.79  3.52  #75
  H  12.33  8.62  3.39  #76
  O  10.98  15.88  13.96  #77
  H  10.77  16.37  14.79  #78
  H  11.72  15.38  14.23  #79
  O  16.33  14.52  12.98  #80
  H  17.16  14.44  13.49  #81
  H  16  15.42  13.13  #82
  O  8.71  8.76  8.04  #83
  H  7.96  9.03  8.58  #84
  H  9.11  7.91  8.41  #85
  O  6.52  15.47  9.72  #86
  H  6.2  15.63  10.67  #87
  H  7.48  15.31  9.78  #88
  O  10.56  9.22  16.04  #89
  H  11.29  9.34  15.35  #90
  H  10.83  9.61  16.85  #91
  O  7.5  16.58  12.7  #92
  H  8.12  17.06  13.17  #93
  H  7.84  15.68  12.69  #94
  O  15.2  10.85  13.28  #95
  H  15.87  10.62  12.63  #96
  H  14.76  11.55  12.89  #97
  Q  0.6645  6.92$  1.85$  9.47$
  Q  0.6645  5.54$  1.33$  10.03$
  Q  -1.3290  6.07$  1.63$  9.42$
  Q  0.6645  12.24$  2.58$  9.63$
  Q  0.6645  12.27$  2.69$  11.14$
  Q  -1.3290  12.56$  2.83$  10.39$
  Q  0.6645  14.11$  12.19$  3.4$
  Q  0.6645  12.84$  12.84$  2.57$
  Q  -1.3290  13.59$  12.79$  3$
  Q  0.6645  18.27$  9.28$  13.69$
  Q  0.6645  18.72$  9.06$  15.06$
  Q  -1.3290  18.41$  8.82$  14.33$
  Q  0.6645  7.78$  7.03$  20.38$
  Q  0.6645  7$  5.78$  19.71$
  Q  -1.3290  7.3$  6.58$  19.77$
  Q  0.6645  11.58$  12.89$  17.13$
  Q  0.6645  10.74$  12.7$  15.82$
  Q  -1.3290  11.4$  12.62$  16.34$
  Q  0.6645  2.5$  7.82$  7.5$
  Q  0.6645  2.99$  7.59$  6.12$
  Q  -1.3290  2.53$  7.4$  6.78$
  Q  0.6645  6.88$  4.29$  15.77$
  Q  0.6645  6.94$  4.49$  14.22$
  Q  -1.3290  6.58$  4.28$  14.97$
  Q  0.6645  14.65$  5.85$  13.65$
  Q  0.6645  13.96$  6.76$  12.7$
  Q  -1.3290  14.08$  6.07$  13.08$
  Q  0.6645  4.89$  8.27$  7.6$
  Q  0.6645  5.41$  9.64$  8.23$
  Q  -1.3290  4.95$  9.12$  7.74$
  Q  0.6645  4.31$  13.04$  8.22$
  Q  0.6645  5.38$  13.72$  9.14$
  Q  -1.3290  4.79$  13.12$  8.91$
  Q  0.6645  10.49$  3.63$  3.74$
  Q  0.6645  10.18$  4.75$  2.58$
  Q  -1.3290  10.53$  4.4$  3.32$
  Q  0.6645  10.02$  6.18$  4.1$
  Q  0.6645  10.59$  7.24$  5.07$
  Q  -1.3290  10.03$  6.91$  4.51$
  Q  0.6645  18.1$  11.41$  8.73$
  Q  0.6645  16.57$  11.55$  9.11$
  Q  -1.3290  17.42$  11.65$  9.22$
  Q  0.6645  13.32$  2.06$  6.22$
  Q  0.6645  13.48$  0.61$  5.66$
  Q  -1.3290  13.53$  1.48$  5.64$
  Q  0.6645  14.46$  11.45$  18.6$
  Q  0.6645  14.02$  11.24$  20.21$
  Q  -1.3290  13.99$  11.5$  19.36$
  Q  0.6645  20.87$  10.35$  13.58$
  Q  0.6645  21.22$  9.26$  12.6$
  Q  -1.3290  20.81$  9.94$  12.86$
  Q  0.6645  7.73$  2.76$  5.79$
  Q  0.6645  8.06$  4.27$  6.2$
  Q  -1.3290  8.16$  3.44$  6.14$
  Q  0.6645  7.97$  19.66$  13.76$
  Q  0.6645  8.35$  18.83$  14.97$
  Q  -1.3290  8.42$  19.11$  14.17$
  Q  0.6645  10.45$  21.38$  10.94$
  Q  0.6645  9.41$  20.49$  10.6$
  Q  -1.3290  9.74$  21.11$  11.06$
  Q  0.6645  14.48$  2.74$  4.03$
  Q  0.6645  15.5$  3.73$  4.02$
  Q  -1.3290  14.87$  3.35$  3.68$
  Q  0.6645  16.47$  13.79$  15.45$
  Q  0.6645  15.09$  13.95$  15.59$
  Q  -1.3290  15.84$  13.94$  15.92$
  Q  0.6645  17.03$  10.98$  21.35$
  Q  0.6645  16.56$  11.55$  19.97$
  Q  -1.3290  16.82$  10.95$  20.52$
  Q  0.6645  9.21$  8.62$  21.44$
  Q  0.6645  8.32$  7.94$  22.4$
  Q  -1.3290  8.73$  7.98$  21.7$
  Q  0.6645  3.6$  3.92$  9.28$
  Q  0.6645  4.97$  3.41$  9.15$
  Q  -1.3290  4.43$  4$  9.32$
  Q  0.6645  11.21$  17.65$  12.06$
  Q  0.6645  10.26$  17.78$  10.88$
  Q  -1.3290  11$  17.56$  11.24$
  Q  0.6645  16.11$  14.43$  17.93$
  Q  0.6645  16.57$  14.75$  19.48$
  Q  -1.3290  16.11$  14.81$  18.74$
  Q  0.6645  5.36$  1.76$  17.27$
  Q  0.6645  5.24$  3.11$  16.55$
  Q  -1.3290  5.49$  2.58$  17.15$
  Q  0.6645  0.55$  14.73$  13.66$
  Q  0.6645  2.08$  14.87$  13.87$
  Q  -1.3290  1.28$  15.05$  13.98$
  Q  0.6645  14.52$  3.83$  12.25$
  Q  0.6645  15.05$  2.87$  11.2$
  Q  -1.3290  14.97$  3.19$  11.97$
  Q  0.6645  6.34$  10.34$  10.24$
  Q  0.6645  5.76$  11.59$  9.39$
  Q  -1.3290  6.32$  10.93$  9.59$
  Q  0.6645  2.49$  9.31$  14.46$
  Q  0.6645  3.61$  10.28$  13.96$
  Q  -1.3290  2.88$  9.88$  13.92$
  Q  0.6645  7.76$  16.92$  19.07$
  Q  0.6645  9.1$  17.37$  18.81$
  Q  -1.3290  8.38$  17.08$  18.54$
  Q  0.6645  19.46$  12.32$  5.08$
  Q  0.6645  17.86$  12.41$  5.27$
  Q  -1.3290  18.69$  12.4$  5.54$
  Q  0.6645  8.34$  14.74$  -0.71$
  Q  0.6645  8.67$  15.17$  0.81$
  Q  -1.3290  8.2$  15.09$  0.06$
  Q  0.6645  6.5$  5.54$  4.72$
  Q  0.6645  5.87$  5.24$  3.17$
  Q  -1.3290  5.9$  5.34$  4.06$
  Q  0.6645  7.99$  8.66$  3.14$
  Q  0.6645  6.62$  9.02$  2.66$
  Q  -1.3290  7.39$  8.75$  2.53$
  Q  0.6645  2.93$  10.95$  3.59$
  Q  0.6645  2.96$  10.99$  2.01$
  Q  -1.3290  2.71$  11.22$  2.81$
  Q  0.6645  5.52$  10.79$  1.51$
  Q  0.6645  5.49$  12.22$  1.84$
  Q  -1.3290  5.87$  11.53$  1.65$
  Q  0.6645  7.05$  8.67$  19.37$
  Q  0.6645  7.7$  10.12$  19.29$
  Q  -1.3290  7.08$  9.53$  19.18$
  Q  0.6645  8.67$  11.53$  3.25$
  Q  0.6645  7.67$  12.26$  2.24$
  Q  -1.3290  8.3$  12.19$  2.84$
  Q  0.6645  18.61$  7.23$  11.12$
  Q  0.6645  19.24$  8.58$  11.32$
  Q  -1.3290  19.03$  7.94$  10.88$
  Q  0.6645  17.78$  15.77$  4.75$
  Q  0.6645  17.73$  15.79$  3.2$
  Q  -1.3290  17.43$  15.84$  3.98$
  Q  0.6645  13.56$  14.61$  3.65$
  Q  0.6645  14.11$  16.01$  4.04$
  Q  -1.3290  13.59$  15.46$  3.67$
  Q  0.6645  1.6$  12.83$  12.92$
  Q  0.6645  1.68$  11.45$  13.79$
  Q  -1.3290  1.42$  12.25$  13.55$
  Q  0.6645  9.95$  2.89$  5.52$
  Q  0.6645  11.43$  3.2$  5.42$
  Q  -1.3290  10.75$  2.71$  5.38$
  Q  0.6645  11.77$  16.49$  2.84$
  Q  0.6645  10.47$  17.29$  2.08$
  Q  -1.3290  11.06$  17.03$  2.69$
  Q  0.6645  15.27$  20.04$  8.69$
  Q  0.6645  15.89$  19.03$  7.65$
  Q  -1.3290  15.27$  19.39$  8.1$
  Q  0.6645  1.12$  9.8$  4.5$
  Q  0.6645  1.88$  10.32$  5.75$
  Q  -1.3290  1.22$  9.99$  5.31$
  Q  0.6645  15.53$  7.2$  2.23$
  Q  0.6645  16.46$  7.63$  3.28$
  Q  -1.3290  16.11$  7.11$  2.8$
  Q  0.6645  13.38$  6.26$  15.2$
  Q  0.6645  13.2$  5.39$  16.43$
  Q  -1.3290  13.03$  6.03$  15.91$
  Q  0.6645  15.93$  16.86$  4.75$
  Q  0.6645  15.08$  18.17$  4.72$
  Q  -1.3290  15.27$  17.36$  4.9$
  Q  0.6645  7.99$  10.42$  0.85$
  Q  0.6645  9.48$  10.73$  1.13$
  Q  -1.3290  8.81$  10.58$  0.65$
  Q  0.6645  3.11$  9.84$  17.17$
  Q  0.6645  1.56$  9.82$  16.95$
  Q  -1.3290  2.27$  10.1$  17.28$
  Q  0.6645  5.4$  13.32$  20.84$
  Q  0.6645  6.31$  14.24$  21.74$
  Q  -1.3290  5.56$  13.97$  21.35$
  Q  0.6645  3.05$  13.59$  6.44$
  Q  0.6645  4.22$  14.26$  5.85$
  Q  -1.3290  3.86$  13.72$  6.34$
  Q  0.6645  2.28$  16.58$  11.87$
  Q  0.6645  3.04$  16.38$  10.64$
  Q  -1.3290  2.94$  16.27$  11.45$
  Q  0.6645  16.84$  7.19$  8.34$
  Q  0.6645  16.48$  6.31$  7.18$
  Q  -1.3290  16.95$  6.86$  7.57$
  Q  0.6645  9.61$  15.27$  5.17$
  Q  0.6645  11.08$  15.44$  5.18$
  Q  -1.3290  10.38$  15$  5.17$
  Q  0.6645  10.07$  15.11$  2.81$
  Q  0.6645  9.53$  13.73$  2.38$
  Q  -1.3290  9.75$  14.52$  2.27$
  Q  0.6645  17.43$  11.61$  1.55$
  Q  0.6645  17.62$  10.04$  1.43$
  Q  -1.3290  17.19$  10.78$  1.42$
  Q  0.6645  5.32$  8.48$  15.94$
  Q  0.6645  5.71$  9.32$  17.21$
  Q  -1.3290  5.21$  8.87$  16.7$
  Q  0.6645  8.76$  19.95$  7.08$
  Q  0.6645  7.91$  18.71$  6.61$
  Q  -1.3290  8.47$  19.15$  7.09$
  Q  0.6645  20.22$  6.94$  9.62$
  Q  0.6645  21.3$  7.44$  8.59$
  Q  -1.3290  20.96$  6.91$  9.2$
  Q  0.6645  10.59$  18.89$  14.17$
  Q  0.6645  12.08$  18.45$  14.22$
  Q  -1.3290  11.41$  18.92$  13.98$
  Q  0.6645  9.86$  10.99$  18.84$
  Q  0.6645  9.07$  11.24$  20.25$
  Q  -1.3290  9.21$  11.23$  19.37$
  Q  0.6645  13.51$  5.97$  9.14$
  Q  0.6645  13.61$  4.61$  9.65$
  Q  -1.3290  13.94$  5.29$  9.34$
  Q  0.6645  18.94$  13.15$  7.28$
  Q  0.6645  18.4$  13.86$  8.48$
  Q  -1.3290  19.01$  13.67$  7.91$
  Q  0.6645  7.76$  15.39$  17.25$
  Q  0.6645  8$  14.12$  16.53$
  Q  -1.3290  7.54$  14.78$  16.74$
  Q  0.6645  8.07$  7.39$  10.6$
  Q  0.6645  6.68$  7.58$  11.33$
  Q  -1.3290  7.22$  7.42$  10.69$
  Q  0.6645  5.02$  2.06$  4.48$
  Q  0.6645  5.01$  3.6$  4.65$
  Q  -1.3290  4.68$  2.81$  4.63$
  Q  0.6645  13.17$  2.11$  13.35$
  Q  0.6645  11.67$  1.72$  13.81$
  Q  -1.3290  12.34$  1.84$  13.28$
  Q  0.6645  14.8$  18.17$  10.16$
  Q  0.6645  13.28$  18.48$  10.74$
  Q  -1.3290  14.18$  18.44$  10.72$
  Q  0.6645  17.57$  5.46$  12.67$
  Q  0.6645  17.85$  4.87$  11.21$
  Q  -1.3290  17.83$  5.47$  11.84$
  Q  0.6645  15.6$  12.92$  4.88$
  Q  0.6645  16.55$  13.67$  3.88$
  Q  -1.3290  16.3$  13.04$  4.42$
  Q  0.6645  18.05$  15.55$  10.42$
  Q  0.6645  17.26$  14.33$  10.94$
  Q  -1.3290  17.63$  14.79$  10.35$
  Q  0.6645  12.31$  10.76$  18.87$
  Q  0.6645  11.58$  9.51$  19.03$
  Q  -1.3290  11.69$  10.23$  18.69$
  Q  0.6645  15.38$  6.48$  9.91$
  Q  0.6645  16.55$  6.49$  10.81$
  Q  -1.3290  16.05$  6.81$  10.26$
  Q  0.6645  12.22$  20.66$  12.41$
  Q  0.6645  12.46$  22.19$  12.18$
  Q  -1.3290  12.42$  21.36$  11.96$
  Q  0.6645  5.16$  10.95$  19.29$
  Q  0.6645  4.84$  12.32$  18.54$
  Q  -1.3290  4.96$  11.8$  19.2$
  Q  0.6645  14.15$  18.69$  19.3$
  Q  0.6645  13.45$  17.48$  18.47$
  Q  -1.3290  13.5$  18.19$  19.02$
  Q  0.6645  10.71$  18.04$  16.56$
  Q  0.6645  9.54$  17.27$  16.98$
  Q  -1.3290  10.09$  17.53$  16.43$
  Q  0.6645  19.86$  17.12$  10.99$
  Q  0.6645  18.47$  17.64$  11.41$
  Q  -1.3290  19.03$  17.02$  11.21$
  Q  0.6645  20.27$  11.48$  11.58$
  Q  0.6645  19.54$  12.5$  10.63$
  Q  -1.3290  20.17$  12.01$  10.89$
  Q  0.6645  13.63$  9.32$  16.82$
  Q  0.6645  13.57$  7.86$  17.01$
  Q  -1.3290  13.94$  8.61$  17.14$
  Q  0.6645  16.03$  7.66$  0.37$
  Q  0.6645  14.66$  7.44$  -0.27$
  Q  -1.3290  15.18$  7.73$  0.31$
  Q  0.6645  0.03$  7.91$  10.54$
  Q  0.6645  1.21$  8.72$  11.08$
  Q  -1.3290  0.57$  8.22$  11.14$
  Q  0.6645  18.01$  17.33$  7.11$
  Q  0.6645  18.44$  18.6$  7.98$
  Q  -1.3290  17.92$  17.96$  7.68$
  Q  0.6645  10.53$  10.68$  4.59$
  Q  0.6645  9.35$  9.8$  4.83$
  Q  -1.3290  9.9$  10.22$  4.36$
  Q  0.6645  10.41$  2.5$  15.74$
  Q  0.6645  11.7$  3.2$  16$
  Q  -1.3290  11.03$  3$  15.56$
  Q  0.6645  8.08$  5.59$  18.09$
  Q  0.6645  8.89$  5.75$  16.86$
  Q  -1.3290  8.44$  5.33$  17.39$
  Q  0.6645  18.53$  16.46$  13.05$
  Q  0.6645  18.07$  16.58$  14.44$
  Q  -1.3290  18.51$  16.21$  13.85$
  Q  0.6645  4.6$  16.06$  4.68$
  Q  0.6645  4.71$  14.8$  3.81$
  Q  -1.3290  4.94$  15.34$  4.42$
  Q  0.6645  11.36$  2.71$  18.75$
  Q  0.6645  11.87$  1.32$  18.72$
  Q  -1.3290  11.45$  1.94$  19.08$
  Q  0.6645  15.71$  8.9$  18.06$
  Q  0.6645  16.5$  9.48$  19.23$
  Q  -1.3290  16.38$  8.98$  18.56$
  Q  0.6645  10.89$  5.98$  15.69$
  Q  0.6645  10.29$  7.4$  15.92$
  Q  -1.3290  10.26$  6.55$  15.68$
  Q  0.6645  8.01$  18.01$  10.24$
  Q  0.6645  8.68$  18.68$  8.98$
  Q  -1.3290  8.64$  18.35$  9.8$
  Q  0.6645  3.92$  5.56$  12.41$
  Q  0.6645  4.26$  4.53$  11.27$
  Q  -1.3290  4.38$  4.99$  11.99$
  Q  0.6645  11.96$  5.39$  13.05$
  Q  0.6645  11.42$  4.13$  13.79$
  Q  -1.3290  11.46$  4.73$  13.18$
  Q  0.6645  16.13$  20.06$  11.8$
  Q  0.6645  14.78$  20.53$  11.89$
  Q  -1.3290  15.58$  20.65$  11.87$
  Q  0.6645  2.06$  12.29$  16.68$
  Q  0.6645  1.67$  13.47$  15.84$
  Q  -1.3290  1.79$  13.06$  16.56$
  Q  0.6645  12.96$  4.43$  6.52$
  Q  0.6645  13.39$  3.7$  7.86$
  Q  -1.3290  12.87$  3.94$  7.22$
  Q  0.6645  12.11$  17.48$  6.37$
  Q  0.6645  13.38$  16.63$  5.95$
  Q  -1.3290  12.56$  16.75$  6.2$
  Q  0.6645  18.72$  14.28$  14.64$
  Q  0.6645  19.05$  12.76$  14.68$
  Q  -1.3290  18.61$  13.49$  14.84$
  Q  0.6645  3.2$  13.2$  10.38$
  Q  0.6645  2.71$  11.85$  11.05$
  Q  -1.3290  2.68$  12.68$  10.82$
  Q  0.6645  5.48$  9.7$  12.68$
  Q  0.6645  4.43$  9.5$  11.65$
  Q  -1.3290  5.21$  9.63$  11.89$
  Q  0.6645  10.59$  18.73$  7.06$
  Q  0.6645  11.68$  19.62$  7.61$
  Q  -1.3290  11.36$  19.06$  7.08$
  Q  0.6645  16.84$  6.59$  14.22$
  Q  0.6645  16.76$  5.4$  15.22$
  Q  -1.3290  16.59$  5.83$  14.53$
  Q  0.6645  13.91$  17.83$  1.24$
  Q  0.6645  13.77$  16.51$  2.06$
  Q  -1.3290  14$  16.98$  1.38$
  Q  0.6645  5.64$  13.88$  16.68$
  Q  0.6645  4.34$  14.2$  17.25$
  Q  -1.3290  4.95$  13.66$  17.04$
  Q  0.6645  15.24$  14.03$  0.41$
  Q  0.6645  15.26$  13.43$  1.81$
  Q  -1.3290  15.6$  13.66$  1.07$
  Q  0.6645  12.65$  20.33$  5.78$
  Q  0.6645  13.81$  20.37$  6.79$
  Q  -1.3290  13.37$  20.64$  6.12$
  Q  0.6645  4.76$  3.2$  14.08$
  Q  0.6645  3.48$  2.63$  13.46$
  Q  -1.3290  4.14$  2.62$  13.95$
  Q  0.6645  14.31$  9.72$  0.68$
  Q  0.6645  13.96$  11.19$  1.12$
  Q  -1.3290  13.83$  10.46$  0.71$
  Q  0.6645  7.08$  10.12$  5.51$
  Q  0.6645  7.33$  8.94$  6.5$
  Q  -1.3290  7.2$  9.32$  5.73$
  Q  0.6645  5.33$  5.67$  8.53$
  Q  0.6645  6.5$  6.46$  9.02$
  Q  -1.3290  5.95$  6.22$  8.45$
  Q  0.6645  20.83$  13.75$  11.89$
  Q  0.6645  20.03$  15.07$  12.21$
  Q  -1.3290  20.68$  14.49$  12.26$
  Q  0.6645  5.95$  17.92$  12.73$
  Q  0.6645  4.4$  17.59$  12.47$
  Q  -1.3290  5.1$  18$  12.79$
  Q  0.6645  17.57$  16.4$  16.72$
  Q  0.6645  16.34$  16.29$  15.68$
  Q  -1.3290  17.02$  16.63$  16.06$
  Q  0.6645  11.71$  18.64$  3.58$
  Q  0.6645  10.88$  19.76$  4.13$
  Q  -1.3290  11.53$  19.44$  3.68$
  Q  0.6645  18.5$  5.87$  6.39$
  Q  0.6645  19.82$  5.49$  5.67$
  Q  -1.3290  19.02$  5.37$  5.92$
  Q  0.6645  13.74$  13.95$  6.29$
  Q  0.6645  13.26$  12.7$  5.73$
  Q  -1.3290  13.83$  13.19$  6.07$
  Q  0.6645  4.27$  10.19$  6.3$
  Q  0.6645  3.79$  11.6$  6.03$
  Q  -1.3290  3.85$  10.78$  5.89$
  Q  0.6645  12.49$  4.33$  1.2$
  Q  0.6645  13.85$  3.92$  1.94$
  Q  -1.3290  13.31$  4.13$  1.28$
  Q  0.6645  9.01$  13.02$  19.01$
  Q  0.6645  10.01$  14.27$  19.25$
  Q  -1.3290  9.25$  13.85$  19.19$
  Q  0.6645  10.73$  13.02$  0.91$
  Q  0.6645  11.87$  12.31$  0.32$
  Q  -1.3290  11.42$  12.57$  0.95$
  Q  0.6645  8.81$  1.93$  18.03$
  Q  0.6645  8.76$  3.31$  17.3$
  Q  -1.3290  8.75$  2.45$  17.36$
  Q  0.6645  8.91$  1.05$  10.33$
  Q  0.6645  9.12$  2.58$  10$
  Q  -1.3290  8.87$  1.76$  9.85$
  Q  0.6645  7.1$  18.3$  17.39$
  Q  0.6645  7.34$  19.78$  16.76$
  Q  -1.3290  6.97$  18.99$  16.84$
  Q  0.6645  18.69$  9.18$  17.65$
  Q  0.6645  19.94$  9.83$  16.88$
  Q  -1.3290  19.14$  9.5$  16.96$
  Q  0.6645  14.74$  5.31$  5.37$
  Q  0.6645  15.91$  5.82$  4.61$
  Q  -1.3290  15.53$  5.55$  5.3$
  Q  0.6645  8.25$  6.61$  5.82$
  Q  0.6645  7.16$  6.28$  6.8$
  Q  -1.3290  7.65$  6.12$  6.13$
  Q  0.6645  12.58$  14.56$  19.86$
  Q  0.6645  12.97$  13.12$  19.25$
  Q  -1.3290  12.49$  13.87$  19.37$
  Q  0.6645  6.32$  4.91$  12.29$
  Q  0.6645  7.52$  5.97$  12.5$
  Q  -1.3290  7.13$  5.18$  12.35$
  Q  0.6645  17.04$  3.54$  9.5$
  Q  0.6645  18.38$  2.97$  9.89$
  Q  -1.3290  17.76$  3.52$  9.9$
  Q  0.6645  10.26$  4.47$  11.46$
  Q  0.6645  8.73$  4.48$  11.37$
  Q  -1.3290  9.5$  4.38$  11.06$
  Q  0.6645  6.32$  16.02$  7.82$
  Q  0.6645  6.2$  16.07$  6.28$
  Q  -1.3290  6.11$  16.35$  7.06$
  Q  0.6645  1.72$  7.12$  12.4$
  Q  0.6645  2.75$  7.4$  13.48$
  Q  -1.3290  2.4$  6.97$  12.83$
  Q  0.6645  4.28$  5.66$  17.07$
  Q  0.6645  4.72$  7.12$  17.66$
  Q  -1.3290  4.58$  6.25$  17.66$
  Q  0.6645  19.79$  16.32$  5.79$
  Q  0.6645  19.09$  15.52$  6.88$
  Q  -1.3290  19.13$  16.04$  6.23$
  Q  0.6645  13.86$  3.51$  17.85$
  Q  0.6645  13.64$  2.68$  16.69$
  Q  -1.3290  13.49$  3.3$  17.16$
  Q  0.6645  5.58$  18.26$  7.47$
  Q  0.6645  4.86$  19.54$  7.01$
  Q  -1.3290  5.13$  18.98$  7.6$
  Q  0.6645  16.88$  10.74$  17.29$
  Q  0.6645  16.58$  12.21$  17.02$
  Q  -1.3290  16.46$  11.45$  17.39$
  Q  0.6645  5.73$  12.37$  5.38$
  Q  0.6645  6.92$  12.19$  4.3$
  Q  -1.3290  6.53$  12.16$  5.07$
  Q  0.6645  15.11$  10.25$  4.64$
  Q  0.6645  15.76$  10.69$  3.25$
  Q  -1.3290  15.12$  10.44$  3.81$
  Q  0.6645  5.34$  5.96$  14.81$
  Q  0.6645  5.65$  7.21$  13.9$
  Q  -1.3290  5.2$  6.73$  14.46$
  Q  0.6645  7.96$  15.24$  3$
  Q  0.6645  6.81$  15.8$  3.8$
  Q  -1.3290  7.62$  15.79$  3.51$
  Q  0.6645  13.35$  15.38$  17.83$
  Q  0.6645  14.74$  15.86$  18.06$
  Q  -1.3290  13.95$  15.9$  17.76$
  Q  0.6645  12.96$  6.62$  4.49$
  Q  0.6645  12.18$  5.36$  4.5$
  Q  -1.3290  12.73$  5.88$  4.81$
  Q  0.6645  10.73$  9.33$  2.55$
  Q  0.6645  11.82$  9.71$  1.48$
  Q  -1.3290  11.26$  9.19$  1.88$
  Q  0.6645  17.37$  10.76$  11.09$
  Q  0.6645  17.19$  9.22$  10.94$
  Q  -1.3290  17.11$  9.98$  11.33$
  Q  0.6645  7.94$  5.43$  1.61$
  Q  0.6645  8.75$  4.49$  0.68$
  Q  -1.3290  8.65$  5.07$  1.31$
  Q  0.6645  12.79$  11.32$  15.5$
  Q  0.6645  13.85$  10.37$  14.85$
  Q  -1.3290  13.11$  10.57$  15.19$
  Q  0.6645  13.51$  16.96$  15.99$
  Q  0.6645  13.63$  18.52$  15.88$
  Q  -1.3290  13.52$  17.72$  15.59$
  Q  0.6645  5.95$  8.29$  4.77$
  Q  0.6645  5.02$  7.19$  4.24$
  Q  -1.3290  5.24$  7.97$  4.43$
  Q  0.6645  3.07$  16.66$  17.1$
  Q  0.6645  4.34$  16.2$  16.37$
  Q  -1.3290  3.73$  16.15$  16.99$
  Q  0.6645  12.55$  21.28$  9.99$
  Q  0.6645  12$  21.87$  8.7$
  Q  -1.3290  12.48$  21.33$  9.17$
  Q  0.6645  4.5$  12.32$  13.84$
  Q  0.6645  5.08$  11.9$  15.18$
  Q  -1.3290  4.94$  11.8$  14.38$
  Q  0.6645  4.59$  8.89$  2.85$
  Q  0.6645  4.37$  8.66$  1.29$
  Q  -1.3290  4.63$  9.06$  2$
  Q  0.6645  14.87$  17.42$  13.86$
  Q  0.6645  15.16$  17.38$  12.36$
  Q  -1.3290  15.32$  17.19$  13.17$
  Q  0.6645  12.04$  7.31$  19.79$
  Q  0.6645  10.67$  7.34$  20.37$
  Q  -1.3290  11.26$  7.6$  19.85$
  Q  0.6645  4.63$  14.36$  13.97$
  Q  0.6645  3.89$  14.73$  12.72$
  Q  -1.3290  4.1$  14.23$  13.35$
  Q  0.6645  10.23$  5.96$  0.75$
  Q  0.6645  11.24$  7.05$  0.91$
  Q  -1.3290  11.01$  6.29$  0.71$
  Q  0.6645  6.59$  18.89$  4.34$
  Q  0.6645  7.53$  17.67$  4.48$
  Q  -1.3290  7.12$  18.39$  4.72$
  Q  0.6645  19.99$  7.57$  13.84$
  Q  0.6645  20.9$  7.08$  12.8$
  Q  -1.3290  20.71$  7.28$  13.56$
  Q  0.6645  15.94$  2.88$  7.86$
  Q  0.6645  15.64$  1.72$  8.8$
  Q  -1.3290  15.64$  2.55$  8.53$
  Q  0.6645  20.29$  8.83$  6.91$
  Q  0.6645  21.78$  8.99$  6.63$
  Q  -1.3290  21.12$  8.77$  7.07$
  Q  0.6645  9.79$  0.94$  6.22$
  Q  0.6645  8.29$  0.5$  6.39$
  Q  -1.3290  9.15$  0.39$  6.37$
  Q  0.6645  11.32$  2.41$  7.66$
  Q  0.6645  10.21$  1.64$  8.37$
  Q  -1.3290  11$  1.78$  8.16$
  Q  0.6645  5.26$  6.09$  1.4$
  Q  0.6645  6.47$  6.92$  1.83$
  Q  -1.3290  6.06$  6.22$  1.64$
  Q  0.6645  5.44$  16.86$  14.44$
  Q  0.6645  6.35$  15.87$  15.21$
  Q  -1.3290  5.61$  16.18$  14.92$
  Q  0.6645  0.9$  12.68$  6.06$
  Q  0.6645  0.99$  11.99$  7.28$
  Q  -1.3290  1.24$  12.56$  6.77$
  Q  0.6645  16.69$  18.38$  13.04$
  Q  0.6645  17.99$  19.18$  13.3$
  Q  -1.3290  17.35$  18.88$  12.83$
  Q  0.6645  11.51$  5.14$  19.74$
  Q  0.6645  10.33$  5.02$  18.65$
  Q  -1.3290  10.99$  4.76$  19.17$
  Q  0.6645  2.34$  4.31$  16.49$
  Q  0.6645  3.05$  4.63$  15.19$
  Q  -1.3290  3.01$  4.55$  16.02$
  Q  0.6645  19$  10.74$  6.45$
  Q  0.6645  17.78$  10$  6.77$
  Q  -1.3290  18.57$  10.09$  6.74$
  Q  0.6645  14.11$  5.32$  19.83$
  Q  0.6645  13.41$  5.61$  21.22$
  Q  -1.3290  13.65$  5.74$  20.42$
  Q  0.6645  2.06$  10.06$  9.63$
  Q  0.6645  3.53$  9.69$  9.21$
  Q  -1.3290  2.83$  9.71$  9.71$
  Q  0.6645  18.56$  7.14$  4.41$
  Q  0.6645  18.48$  8.71$  4.85$
  Q  -1.3290  18.5$  8$  4.31$
*
