! NoMOPrint PrintBasis #MINIPRINT SMALLPRINT LARGEPRINT
! ALLPOP XYZFILE
#! BP86 3-21G   TightSCF
! ENGRAD
! B3LYP NormalPNO PModel #DecontractAux
#! VerySlowConv 
 %maxcore 5000
 %scf  maxiter   500  end 

%pal
    nprocs 32
end

%basis
    NewGTO O    # New basis for oxygen
        "aug-cc-pVTZ"
    end
    NewGTO C    # New basis for carbon
        "aug-cc-pVTZ"
    end
    NewGTO H    # New basis for hydrogen
        "cc-pVTZ"
    end
end

* xyz 0   1
  C  10.96  9.99  12.38  #1
  H  10.45  9.52  13.24  #2
  H  11.65  10.67  12.78  #3
  C  9.9  10.69  11.54  #4
  H  8.99  10.13  11.34  #5
  H  9.61  11.6  12.19  #6
  C  10.54  11.25  10.15  #7
  H  9.73  11.92  9.75  #8
  H  10.73  10.44  9.37  #9
  C  11.79  12.13  10.29  #10
  H  12.64  11.57  10.66  #11
  H  11.54  12.94  10.97  #12
  O  12.2  12.66  8.99  #13
  H  12.31  11.91  8.39  #14
  O  11.72  8.98  11.74  #15
  H  12.35  8.69  12.42  #16
  O  12.41  13.88  6.19  #17
  H  11.81  13.2  6.53  #18
  H  12.33  14.63  6.72  #19
  O  11.73  15.44  8.91  #20
  H  11.86  14.44  8.96  #21
  H  12.06  15.85  9.74  #22
  O  12.35  12.53  14.45  #23
  H  12.88  13.4  14.53  #24
  H  13  11.9  14.24  #25
  O  8.56  8.32  7.71  #26
  H  9.09  8.24  8.53  #27
  H  8.19  7.4  7.44  #28
  O  11.78  10.91  6.94  #29
  H  11.8  10.17  7.56  #30
  H  10.91  10.82  6.43  #31
  O  13.77  14.57  16.51  #32
  H  13.76  13.79  17.08  #33
  H  14.49  14.49  15.88  #34
  O  15.13  13.92  5.77  #35
  H  14.17  14.11  5.85  #36
  H  15.31  14.34  4.87  #37
  O  12.8  6.62  13.77  #38
  H  11.94  6.87  14.16  #39
  H  12.9  5.7  13.98  #40
  O  7.59  5.78  7.14  #41
  H  7.09  5.95  6.28  #42
  H  8.42  5.4  6.96  #43
  O  13.03  15.23  12.63  #44
  H  12.2  15.56  12.27  #45
  H  13.61  15.88  12.22  #46
  O  14.88  14.29  9.03  #47
  H  15.72  14.34  8.52  #48
  H  14.37  13.47  8.75  #49
  O  10.09  7.66  5.63  #50
  H  9.64  8.22  6.34  #51
  H  9.85  6.72  5.79  #52
  O  13.23  16.53  6.76  #53
  H  13.04  16.27  7.62  #54
  H  14.18  16.35  6.69  #55
  O  15.31  13.96  14.02  #56
  H  15.94  13.27  14.33  #57
  H  15.03  13.71  13.15  #58
  O  8.4  13.93  12.65  #59
  H  8.89  13.98  13.44  #60
  H  7.48  13.93  12.86  #61
  O  10.44  8.93  15.77  #62
  H  9.7  9.51  16.01  #63
  H  10.09  8.01  15.72  #64
  O  10.01  7.71  9.89  #65
  H  10.5  8.17  10.57  #66
  H  9.85  6.84  10.34  #67
  O  11.71  18.41  10.25  #68
  H  11.12  17.61  10.39  #69
  H  11.12  18.92  9.73  #70
  O  11.19  13.96  3.83  #71
  H  11.28  14.81  3.38  #72
  H  11.64  14.11  4.63  #73
  O  12.66  11.88  17.28  #74
  H  12.51  11.96  16.3  #75
  H  11.96  12.32  17.81  #76
  O  10.73  16.18  11.63  #77
  H  10.15  16.51  12.41  #78
  H  10.16  15.65  11.07  #79
  O  11.82  15.86  15.17  #80
  H  12.46  15.55  15.82  #81
  H  12.26  15.76  14.32  #82
  O  14.72  7.64  12.14  #83
  H  14.67  8.65  12.13  #84
  H  14.16  7.28  12.84  #85
  O  11.98  8.53  8.23  #86
  H  12.02  8.03  7.36  #87
  H  11.3  8.04  8.75  #88
  O  9.5  10.69  5.28  #89
  H  9.76  10.79  4.29  #90
  H  8.66  11.16  5.32  #91
  O  9.95  17.47  7.99  #92
  H  9.3  17.62  7.3  #93
  H  10.23  16.54  8.11  #94
  O  14.55  10.62  14.48  #95
  H  15.36  11.06  14.65  #96
  H  14.7  9.7  14.61  #97
  O  6.89  10.67  7.76  #98
  H  6.34  10.52  6.97  #99
  H  7.5  9.92  7.69  #100
  O  9.74  13.55  15.3  #101
  H  10.68  13.32  15.04  #102
  H  9.53  12.76  15.81  #103
  O  14.27  11.09  5.45  #104
  H  13.5  11.2  5.97  #105
  H  14.67  11.98  5.29  #106
  Q  0.6645  12.46$  2.05$  5.64$
  Q  0.6645  12.73$  3.04$  6.63$
  Q  -1.3290  12.39$  2.34$  6.36$
  Q  0.6645  5.32$  12.01$  10.07$
  Q  0.6645  5.55$  10.8$  9.03$
  Q  -1.3290  5.15$  11.25$  9.65$
  Q  0.6645  8.2$  19.44$  5.3$
  Q  0.6645  8.04$  20.51$  6.46$
  Q  -1.3290  7.95$  19.74$  6.09$
  Q  0.6645  15.23$  16.15$  14.03$
  Q  0.6645  15.54$  17.15$  15.13$
  Q  -1.3290  15.13$  16.85$  14.46$
  Q  0.6645  7.21$  8.99$  18.66$
  Q  0.6645  6.16$  7.97$  18.18$
  Q  -1.3290  6.77$  8.57$  18.11$
  Q  0.6645  6.22$  8.13$  5.11$
  Q  0.6645  6.33$  6.92$  4.13$
  Q  -1.3290  6.12$  7.3$  4.87$
  Q  0.6645  9.86$  0.75$  16.01$
  Q  0.6645  10.5$  -0.49$  15.54$
  Q  -1.3290  10.47$  0.33$  15.6$
  Q  0.6645  1.26$  5.2$  13.58$
  Q  0.6645  2.76$  5.88$  13.58$
  Q  -1.3290  1.9$  5.81$  13.38$
  Q  0.6645  12.65$  3.55$  14.38$
  Q  0.6645  13.29$  4.43$  15.59$
  Q  -1.3290  13.24$  4.06$  14.81$
  Q  0.6645  14.94$  15.92$  17.83$
  Q  0.6645  16.57$  15.95$  18.15$
  Q  -1.3290  15.7$  16.14$  18.26$
  Q  0.6645  3.94$  4.01$  17.61$
  Q  0.6645  5.21$  4.51$  16.85$
  Q  -1.3290  4.79$  4.06$  17.46$
  Q  0.6645  2.86$  11.29$  14.64$
  Q  0.6645  3.67$  10.7$  13.45$
  Q  -1.3290  3.55$  11.15$  14.16$
  Q  0.6645  20.44$  9.9$  6.23$
  Q  0.6645  21.65$  10.48$  5.66$
  Q  -1.3290  21.05$  9.91$  5.69$
  Q  0.6645  15.29$  12.85$  18.96$
  Q  0.6645  14.27$  12.13$  17.92$
  Q  -1.3290  15.04$  12.4$  18.25$
  Q  0.6645  9.67$  7.4$  21.43$
  Q  0.6645  9.65$  7.18$  19.91$
  Q  -1.3290  9.32$  7.27$  20.69$
  Q  0.6645  9.35$  9.69$  1.6$
  Q  0.6645  10.67$  8.99$  1.76$
  Q  -1.3290  10.06$  9.39$  1.33$
  Q  0.6645  1.62$  8.51$  8.17$
  Q  0.6645  0.42$  9.48$  8.24$
  Q  -1.3290  0.97$  8.92$  8.54$
  Q  0.6645  16.9$  18.85$  17.23$
  Q  0.6645  16$  17.5$  17.25$
  Q  -1.3290  16.28$  18.27$  16.95$
  Q  0.6645  6.84$  2.28$  15.71$
  Q  0.6645  6.78$  1.46$  17.07$
  Q  -1.3290  7$  1.6$  16.25$
  Q  0.6645  15.37$  0.15$  15.67$
  Q  0.6645  16.22$  1.13$  14.97$
  Q  -1.3290  16.06$  0.58$  15.59$
  Q  0.6645  13.42$  7.77$  9.19$
  Q  0.6645  14.05$  7.23$  10.38$
  Q  -1.3290  13.87$  7.22$  9.59$
  Q  0.6645  14.7$  15.15$  2.91$
  Q  0.6645  15.56$  16.22$  2.89$
  Q  -1.3290  14.95$  15.81$  3.21$
  Q  0.6645  19.53$  7.41$  9.67$
  Q  0.6645  19.35$  8.53$  10.63$
  Q  -1.3290  19.21$  8.13$  9.92$
  Q  0.6645  8.73$  16.16$  0.51$
  Q  0.6645  10.09$  16.11$  1.29$
  Q  -1.3290  9.44$  15.79$  0.85$
  Q  0.6645  1.16$  8.78$  10.81$
  Q  0.6645  1.16$  9.89$  11.79$
  Q  -1.3290  1.42$  9.14$  11.48$
  Q  0.6645  14.13$  1.75$  9.27$
  Q  0.6645  14.48$  3.11$  9.8$
  Q  -1.3290  14.03$  2.4$  9.76$
  Q  0.6645  19.93$  7.85$  12.51$
  Q  0.6645  19.11$  8.98$  12.99$
  Q  -1.3290  19.77$  8.65$  12.6$
  Q  0.6645  10.95$  12.39$  3.09$
  Q  0.6645  10.57$  11.68$  1.73$
  Q  -1.3290  10.8$  11.73$  2.59$
  Q  0.6645  16.48$  13.87$  6.71$
  Q  0.6645  17.32$  13.2$  7.76$
  Q  -1.3290  17.07$  13.86$  7.3$
  Q  0.6645  16.35$  7.03$  3.66$
  Q  0.6645  15.98$  7.16$  2.13$
  Q  -1.3290  15.84$  6.96$  2.94$
  Q  0.6645  3.05$  13.8$  10.84$
  Q  0.6645  1.63$  13.24$  11.29$
  Q  -1.3290  2.2$  13.82$  10.97$
  Q  0.6645  8.6$  14.23$  2.18$
  Q  0.6645  6.99$  14.26$  2.04$
  Q  -1.3290  7.76$  14.18$  2.45$
  Q  0.6645  12.27$  5.81$  17.82$
  Q  0.6645  12.84$  4.3$  17.67$
  Q  -1.3290  12.58$  5.11$  17.44$
  Q  0.6645  11.08$  1.52$  14.49$
  Q  0.6645  11.48$  1.82$  12.87$
  Q  -1.3290  11.41$  1.95$  13.77$
  Q  0.6645  12.9$  7.25$  4.95$
  Q  0.6645  14.07$  7.79$  5.76$
  Q  -1.3290  13.4$  7.3$  5.61$
  Q  0.6645  7.49$  0.56$  12.45$
  Q  0.6645  8.23$  1.52$  11.57$
  Q  -1.3290  7.88$  0.78$  11.79$
  Q  0.6645  19.25$  5.31$  13.36$
  Q  0.6645  17.86$  5.52$  12.91$
  Q  -1.3290  18.43$  5.35$  13.47$
  Q  0.6645  10.69$  4.98$  10.98$
  Q  0.6645  9.78$  5.24$  12.3$
  Q  -1.3290  10.04$  5.29$  11.47$
  Q  0.6645  17.02$  4.68$  18.69$
  Q  0.6645  16.36$  3.58$  17.82$
  Q  -1.3290  16.8$  4.28$  17.94$
  Q  0.6645  10.49$  11.06$  20.31$
  Q  0.6645  10.97$  10.06$  21.27$
  Q  -1.3290  11.09$  10.54$  20.58$
  Q  0.6645  16.18$  20.18$  13.07$
  Q  0.6645  15.81$  18.73$  13.5$
  Q  -1.3290  16.33$  19.37$  13.3$
  Q  0.6645  11.54$  17.64$  5.38$
  Q  0.6645  10.31$  16.92$  4.98$
  Q  -1.3290  10.98$  17.41$  4.85$
  Q  0.6645  3.72$  2.69$  10.27$
  Q  0.6645  4.79$  3.09$  11.23$
  Q  -1.3290  4.32$  2.53$  10.79$
  Q  0.6645  4.36$  13.38$  16.6$
  Q  0.6645  3.51$  14.69$  16.41$
  Q  -1.3290  3.82$  14.01$  16.83$
  Q  0.6645  19.16$  2.15$  13.64$
  Q  0.6645  18.52$  3.12$  14.74$
  Q  -1.3290  19.15$  2.71$  14.3$
  Q  0.6645  4.14$  5.91$  7.57$
  Q  0.6645  3.97$  7.28$  8.07$
  Q  -1.3290  4$  6.46$  8.16$
  Q  0.6645  13.38$  19.26$  16.59$
  Q  0.6645  14.3$  18.9$  17.7$
  Q  -1.3290  13.57$  19.06$  17.37$
  Q  0.6645  2.93$  11.34$  17.51$
  Q  0.6645  3.11$  10.16$  18.48$
  Q  -1.3290  3.34$  10.9$  18.12$
  Q  0.6645  2.96$  7.8$  15.67$
  Q  0.6645  4.54$  7.97$  15.39$
  Q  -1.3290  3.8$  7.7$  15.81$
  Q  0.6645  8.81$  4.85$  18.57$
  Q  0.6645  9.68$  4.08$  19.41$
  Q  -1.3290  9.02$  4.18$  18.96$
  Q  0.6645  1.84$  14.21$  7.81$
  Q  0.6645  1.4$  13.83$  9.15$
  Q  -1.3290  1.38$  13.77$  8.32$
  Q  0.6645  7.65$  6.83$  17.49$
  Q  0.6645  8.96$  6.05$  16.94$
  Q  -1.3290  8.14$  6.18$  17.2$
  Q  0.6645  17.67$  6.27$  15.3$
  Q  0.6645  17.09$  5.64$  16.61$
  Q  -1.3290  17.26$  6.27$  16.07$
  Q  0.6645  18.33$  14.93$  11.64$
  Q  0.6645  18.56$  14.05$  12.71$
  Q  -1.3290  18.54$  14.2$  11.89$
  Q  0.6645  7.28$  14.7$  18.36$
  Q  0.6645  7.73$  14.82$  16.97$
  Q  -1.3290  7.14$  14.75$  17.55$
  Q  0.6645  9.68$  21.7$  6.76$
  Q  0.6645  10.52$  20.65$  7.54$
  Q  -1.3290  9.97$  21.32$  7.43$
  Q  0.6645  17.02$  7.23$  19.77$
  Q  0.6645  17$  8.23$  18.55$
  Q  -1.3290  17.25$  7.9$  19.3$
  Q  0.6645  19.76$  13.48$  10.56$
  Q  0.6645  20.72$  13.64$  9.44$
  Q  -1.3290  20.38$  13.24$  10.05$
  Q  0.6645  17.19$  0.53$  9.49$
  Q  0.6645  17.02$  1.95$  10$
  Q  -1.3290  16.99$  1.1$  10.08$
  Q  0.6645  7.65$  4.61$  4.04$
  Q  0.6645  7.8$  3.35$  5.05$
  Q  -1.3290  7.52$  3.81$  4.33$
  Q  0.6645  15.56$  5.08$  12.41$
  Q  0.6645  16.1$  4.59$  11.07$
  Q  -1.3290  16.11$  4.71$  11.91$
  Q  0.6645  12.78$  9.62$  20.11$
  Q  0.6645  13.9$  8.97$  19.5$
  Q  -1.3290  13.37$  9.07$  20.11$
  Q  0.6645  6.47$  10.74$  4.52$
  Q  0.6645  5.08$  10.14$  4.67$
  Q  -1.3290  5.93$  10.23$  4.87$
  Q  0.6645  7.33$  18.43$  10.05$
  Q  0.6645  7.55$  17.05$  10.39$
  Q  -1.3290  7.2$  17.76$  10.53$
  Q  0.6645  20.06$  10.64$  15.07$
  Q  0.6645  19.36$  11.15$  16.4$
  Q  -1.3290  19.45$  10.99$  15.56$
  Q  0.6645  17.05$  9.56$  1.19$
  Q  0.6645  18.21$  8.51$  1.28$
  Q  -1.3290  17.48$  8.9$  1.49$
  Q  0.6645  14.16$  12.99$  1.85$
  Q  0.6645  14.76$  13.68$  0.54$
  Q  -1.3290  14.28$  13.61$  1.23$
  Q  0.6645  16.88$  19.71$  8.15$
  Q  0.6645  15.67$  19.39$  9.27$
  Q  -1.3290  16.16$  19.3$  8.54$
  Q  0.6645  9.1$  2.72$  7.35$
  Q  0.6645  7.67$  2.17$  7.13$
  Q  -1.3290  8.35$  2.66$  6.97$
  Q  0.6645  16.14$  13.4$  2.42$
  Q  0.6645  16.74$  12.49$  3.48$
  Q  -1.3290  16.13$  12.9$  3.07$
  Q  0.6645  5.84$  3.37$  7.34$
  Q  0.6645  5.9$  3.6$  5.86$
  Q  -1.3290  5.52$  3.37$  6.57$
  Q  0.6645  1.37$  12.32$  5.09$
  Q  0.6645  2.09$  11.4$  6.17$
  Q  -1.3290  1.59$  11.6$  5.49$
  Q  0.6645  6.94$  4.69$  8.55$
  Q  0.6645  7.17$  3.69$  9.57$
  Q  -1.3290  6.69$  4.08$  9.03$
  Q  0.6645  17.75$  5.72$  8.07$
  Q  0.6645  17.02$  7.1$  8.01$
  Q  -1.3290  17.29$  6.32$  7.74$
  Q  0.6645  2.67$  6.26$  9.96$
  Q  0.6645  1.97$  6.17$  11.42$
  Q  -1.3290  2.02$  6.11$  10.54$
  Q  0.6645  11.16$  19.55$  12.23$
  Q  0.6645  9.98$  19.83$  13.31$
  Q  -1.3290  10.72$  19.51$  13.02$
  Q  0.6645  9.61$  18.77$  15.84$
  Q  0.6645  10.39$  18.99$  17.22$
  Q  -1.3290  10.08$  19.19$  16.44$
  Q  0.6645  10.03$  18.96$  3.79$
  Q  0.6645  9.08$  19.74$  2.79$
  Q  -1.3290  9.33$  19.37$  3.53$
  Q  0.6645  4.12$  13.95$  2.13$
  Q  0.6645  4.62$  13.23$  3.43$
  Q  -1.3290  4.05$  13.55$  2.86$
  Q  0.6645  12.41$  19.34$  14.24$
  Q  0.6645  13.9$  18.86$  14.56$
  Q  -1.3290  13.21$  19.35$  14.64$
  Q  0.6645  15.53$  10.52$  18.24$
  Q  0.6645  15.29$  9.39$  17.15$
  Q  -1.3290  15.46$  9.73$  17.91$
  Q  0.6645  11.44$  18.55$  7.18$
  Q  0.6645  12.66$  19.39$  6.78$
  Q  -1.3290  11.84$  19.21$  6.87$
  Q  0.6645  5.19$  14.74$  13.75$
  Q  0.6645  5.17$  13.15$  13.5$
  Q  -1.3290  5.44$  13.97$  13.43$
  Q  0.6645  5.57$  7.93$  11.7$
  Q  0.6645  5.74$  7.27$  10.39$
  Q  -1.3290  5.95$  7.39$  11.16$
  Q  0.6645  12.09$  17.65$  17.83$
  Q  0.6645  11.29$  17.48$  19.08$
  Q  -1.3290  11.58$  17.22$  18.38$
  Q  0.6645  8.69$  4.02$  11.32$
  Q  0.6645  7.23$  3.96$  11.63$
  Q  -1.3290  8.01$  3.63$  11.54$
  Q  0.6645  4.03$  6.88$  5.17$
  Q  0.6645  3.32$  5.65$  5.06$
  Q  -1.3290  3.45$  6.37$  5.41$
  Q  0.6645  21.06$  9.72$  13.32$
  Q  0.6645  22.02$  9.63$  14.59$
  Q  -1.3290  21.5$  10.02$  14$
  Q  0.6645  10.47$  4.14$  5.79$
  Q  0.6645  11.38$  4.92$  6.71$
  Q  -1.3290  10.63$  4.76$  6.34$
  Q  0.6645  17.08$  8.96$  4.92$
  Q  0.6645  17.44$  9.13$  3.41$
  Q  -1.3290  17.5$  9.28$  4.28$
  Q  0.6645  14.14$  10.96$  3.19$
  Q  0.6645  12.69$  10.89$  2.66$
  Q  -1.3290  13.52$  10.82$  2.62$
  Q  0.6645  11.79$  16.97$  2.75$
  Q  0.6645  12.68$  15.84$  2.21$
  Q  -1.3290  11.99$  16.36$  2.24$
  Q  0.6645  7.87$  16.63$  2.46$
  Q  0.6645  8.13$  17.94$  3.21$
  Q  -1.3290  7.64$  17.37$  2.85$
  Q  0.6645  8.1$  6.86$  2.8$
  Q  0.6645  7.69$  5.68$  1.83$
  Q  -1.3290  7.8$  6.1$  2.57$
  Q  0.6645  15.55$  7.47$  15.79$
  Q  0.6645  14.08$  7.54$  15.72$
  Q  -1.3290  14.84$  7.86$  15.64$
  Q  0.6645  19.42$  14.62$  8.13$
  Q  0.6645  20.68$  15.25$  7.56$
  Q  -1.3290  20.07$  15.13$  8.14$
  Q  0.6645  16.6$  9.77$  11.79$
  Q  0.6645  15.92$  11.09$  11.42$
  Q  -1.3290  16.05$  10.25$  11.39$
  Q  0.6645  3.68$  8.95$  6.29$
  Q  0.6645  3.38$  9.81$  7.53$
  Q  -1.3290  3.62$  9.11$  7.13$
  Q  0.6645  14.83$  16$  9.83$
  Q  0.6645  14.9$  17.35$  10.52$
  Q  -1.3290  14.87$  16.51$  10.49$
  Q  0.6645  11.86$  12.15$  -0.21$
  Q  0.6645  12.5$  13.37$  0.55$
  Q  -1.3290  11.86$  12.88$  0.21$
  Q  0.6645  8.21$  14.89$  10.98$
  Q  0.6645  8.26$  14.76$  9.54$
  Q  -1.3290  8.48$  15.14$  10.22$
  Q  0.6645  0.97$  12.35$  15.85$
  Q  0.6645  2.31$  12.65$  16.22$
  Q  -1.3290  1.69$  12.14$  16.16$
  Q  0.6645  13.51$  -0.3$  14.59$
  Q  0.6645  12.86$  1.07$  14.14$
  Q  -1.3290  13.5$  0.51$  14.38$
  Q  0.6645  10.8$  2.55$  8.86$
  Q  0.6645  10.1$  1.11$  8.72$
  Q  -1.3290  10.21$  1.94$  9.02$
  Q  0.6645  19.62$  12.24$  4.93$
  Q  0.6645  18.84$  11.01$  4.42$
  Q  -1.3290  19.19$  11.81$  4.38$
  Q  0.6645  6.96$  10.37$  1.67$
  Q  0.6645  7.46$  11.8$  2.02$
  Q  -1.3290  7.49$  10.95$  1.98$
  Q  0.6645  9.29$  3.82$  2.92$
  Q  0.6645  10.51$  4.58$  2.62$
  Q  -1.3290  10.09$  3.95$  2.95$
  Q  0.6645  4.94$  14.28$  9.48$
  Q  0.6645  5.26$  14.32$  11$
  Q  -1.3290  5.04$  13.97$  10.27$
  Q  0.6645  6.48$  18.54$  6.96$
  Q  0.6645  5.66$  17.42$  6.4$
  Q  -1.3290  5.95$  17.9$  7.01$
  Q  0.6645  8.21$  11.25$  19.66$
  Q  0.6645  8.96$  12.69$  19.78$
  Q  -1.3290  8.83$  11.84$  19.54$
  Q  0.6645  16.39$  3.22$  13.6$
  Q  0.6645  15.12$  2.91$  14.37$
  Q  -1.3290  15.93$  2.77$  14.1$
  Q  0.6645  8.27$  15.43$  5.74$
  Q  0.6645  9.56$  14.76$  5.17$
  Q  -1.3290  9.09$  15.42$  5.45$
  Q  0.6645  14.52$  5.58$  3.46$
  Q  0.6645  13.43$  5.22$  4.45$
  Q  -1.3290  13.89$  5.11$  3.75$
  Q  0.6645  16.72$  8.78$  14.24$
  Q  0.6645  17.79$  9.83$  14.7$
  Q  -1.3290  17.43$  9.26$  14.2$
  Q  0.6645  1.92$  7.87$  18.53$
  Q  0.6645  3.26$  7.81$  17.75$
  Q  -1.3290  2.7$  8.05$  18.37$
  Q  0.6645  10.21$  5.68$  15.09$
  Q  0.6645  11.19$  5.62$  16.27$
  Q  -1.3290  10.6$  5.99$  15.79$
  Q  0.6645  11.53$  8.55$  4.01$
  Q  0.6645  12.67$  8.91$  2.99$
  Q  -1.3290  12.1$  8.4$  3.41$
  Q  0.6645  10.2$  16.21$  17.59$
  Q  0.6645  10.06$  15.16$  16.46$
  Q  -1.3290  9.77$  15.7$  17.05$
  Q  0.6645  13.01$  7.27$  20.89$
  Q  0.6645  13.39$  5.69$  21.14$
  Q  -1.3290  12.89$  6.42$  21.07$
  Q  0.6645  18.01$  7.8$  4.67$
  Q  0.6645  17.42$  6.71$  5.72$
  Q  -1.3290  17.63$  7.06$  4.95$
  Q  0.6645  18.79$  15.21$  14.59$
  Q  0.6645  18.29$  13.94$  15.21$
  Q  -1.3290  18.74$  14.36$  14.66$
  Q  0.6645  9.38$  14.59$  18.97$
  Q  0.6645  9.22$  15.04$  20.47$
  Q  -1.3290  8.99$  14.81$  19.7$
  Q  0.6645  12.51$  1.07$  11$
  Q  0.6645  11.12$  1.36$  10.47$
  Q  -1.3290  11.69$  1.14$  11.04$
  Q  0.6645  0.8$  7.64$  15.54$
  Q  0.6645  1.27$  7.62$  14.17$
  Q  -1.3290  1.22$  7.94$  14.94$
  Q  0.6645  3.73$  15.96$  12.42$
  Q  0.6645  4.92$  16.97$  12.18$
  Q  -1.3290  4.37$  16.33$  12$
  Q  0.6645  10.3$  16.7$  14.55$
  Q  0.6645  10.17$  18.02$  13.78$
  Q  -1.3290  9.88$  17.3$  14.14$
  Q  0.6645  7.55$  13.19$  4.4$
  Q  0.6645  6.59$  12.76$  5.47$
  Q  -1.3290  7.32$  12.7$  5.03$
  Q  0.6645  11.75$  6.7$  19.45$
  Q  0.6645  11.57$  7.72$  18.34$
  Q  -1.3290  11.34$  7.08$  18.82$
  Q  0.6645  20.93$  14$  5.86$
  Q  0.6645  21.25$  13.23$  7.13$
  Q  -1.3290  20.86$  13.34$  6.37$
  Q  0.6645  17.65$  19.16$  10.15$
  Q  0.6645  17.43$  19.61$  11.65$
  Q  -1.3290  17.84$  19.59$  10.87$
  Q  0.6645  11.33$  14.15$  20.28$
  Q  0.6645  11.89$  15.09$  19.08$
  Q  -1.3290  11.46$  14.41$  19.44$
  Q  0.6645  6.69$  13.04$  8.91$
  Q  0.6645  7.44$  12.66$  7.65$
  Q  -1.3290  7.2$  13.18$  8.24$
  Q  0.6645  6.25$  12.88$  17.33$
  Q  0.6645  5.79$  11.37$  17.58$
  Q  -1.3290  6.2$  12.01$  17.2$
  Q  0.6645  16.2$  9.01$  9.34$
  Q  0.6645  17.67$  8.83$  8.78$
  Q  -1.3290  16.81$  8.85$  8.75$
  Q  0.6645  -0.22$  11.93$  11.35$
  Q  0.6645  0.5$  11.54$  12.71$
  Q  -1.3290  0.44$  11.79$  11.87$
  Q  0.6645  12.7$  3.74$  10.2$
  Q  0.6645  12.77$  5.24$  9.56$
  Q  -1.3290  12.44$  4.54$  9.96$
  Q  0.6645  18.79$  3.45$  9.47$
  Q  0.6645  18.09$  3.16$  8.07$
  Q  -1.3290  18.18$  3.49$  8.89$
  Q  0.6645  13.8$  5.29$  6.84$
  Q  0.6645  14.39$  4.16$  7.65$
  Q  -1.3290  13.8$  4.54$  7.17$
  Q  0.6645  3.55$  11.36$  8.75$
  Q  0.6645  2.3$  12.18$  8.35$
  Q  -1.3290  2.9$  11.6$  8.24$
  Q  0.6645  3.32$  9.11$  11.64$
  Q  0.6645  4.38$  9.92$  11.07$
  Q  -1.3290  4.03$  9.49$  11.69$
  Q  0.6645  11.21$  6.65$  2.21$
  Q  0.6645  11.59$  6.1$  0.87$
  Q  -1.3290  11.09$  6.2$  1.53$
  Q  0.6645  18.03$  17.27$  5.58$
  Q  0.6645  18.73$  17.25$  4.23$
  Q  -1.3290  18.69$  17.36$  5.05$
  Q  0.6645  16.55$  12.37$  16.48$
  Q  0.6645  17.66$  12$  15.47$
  Q  -1.3290  16.88$  12.27$  15.72$
  Q  0.6645  5.55$  16.83$  8.5$
  Q  0.6645  5.12$  16.19$  9.89$
  Q  -1.3290  5.12$  16.27$  9.04$
  Q  0.6645  7.48$  7.18$  12.81$
  Q  0.6645  7.08$  7.69$  14.25$
  Q  -1.3290  7.48$  7.2$  13.67$
  Q  0.6645  9.58$  3.6$  13.75$
  Q  0.6645  8.47$  4.66$  13.84$
  Q  -1.3290  9.23$  4.36$  13.95$
  Q  0.6645  19.78$  10.96$  8.44$
  Q  0.6645  19.88$  9.39$  8.68$
  Q  -1.3290  19.96$  10.14$  8.22$
  Q  0.6645  17.64$  17.61$  15.35$
  Q  0.6645  17.64$  16.84$  14.11$
  Q  -1.3290  17.78$  16.96$  14.9$
  Q  0.6645  16.77$  16.13$  11.66$
  Q  0.6645  18.31$  16.81$  11.82$
  Q  -1.3290  17.56$  16.4$  12.03$
  Q  0.6645  17.1$  11.14$  9.16$
  Q  0.6645  17.3$  10.99$  7.61$
  Q  -1.3290  17.28$  11.4$  8.37$
  Q  0.6645  4.91$  19.86$  10.23$
  Q  0.6645  5.1$  18.3$  10.26$
  Q  -1.3290  4.68$  19.06$  10.28$
  Q  0.6645  2.99$  15.26$  6.21$
  Q  0.6645  3.94$  15.47$  7.5$
  Q  -1.3290  3.32$  15.12$  7.02$
  Q  0.6645  19.33$  4.39$  17.27$
  Q  0.6645  18.89$  5.86$  17.33$
  Q  -1.3290  19.42$  5.25$  17.28$
  Q  0.6645  3.91$  4.3$  14.7$
  Q  0.6645  4.07$  5.78$  15.05$
  Q  -1.3290  4.15$  5.09$  14.56$
  Q  0.6645  14.88$  19.75$  5.45$
  Q  0.6645  14.92$  19.36$  6.96$
  Q  -1.3290  14.66$  19.79$  6.27$
  Q  0.6645  15.15$  9.7$  5.83$
  Q  0.6645  15.97$  9.07$  6.99$
  Q  -1.3290  15.62$  9.09$  6.23$
  Q  0.6645  5.44$  9.94$  14.86$
  Q  0.6645  6.1$  9.27$  16.06$
  Q  -1.3290  5.83$  9.32$  15.25$
  Q  0.6645  14.4$  19.79$  11.33$
  Q  0.6645  13.37$  18.84$  10.62$
  Q  -1.3290  14.12$  19.2$  10.78$
  Q  0.6645  6.71$  9.67$  21.11$
  Q  0.6645  8.16$  9.27$  20.78$
  Q  -1.3290  7.41$  9.58$  20.62$
  Q  0.6645  14.79$  10.68$  0.96$
  Q  0.6645  14.83$  10$  -0.44$
  Q  -1.3290  15.17$  10.44$  0.22$
  Q  0.6645  15.23$  5.46$  9.02$
  Q  0.6645  16.46$  4.51$  8.73$
  Q  -1.3290  15.68$  4.72$  9.01$
  Q  0.6645  15.62$  22$  11.65$
  Q  0.6645  14.64$  21.91$  12.91$
  Q  -1.3290  15.09$  21.6$  12.23$
  Q  0.6645  3.21$  9.44$  3.6$
  Q  0.6645  2.89$  10.47$  4.67$
  Q  -1.3290  3.35$  9.92$  4.28$
  Q  0.6645  6.88$  18.49$  12.58$
  Q  0.6645  6.2$  19.43$  13.58$
  Q  -1.3290  6.33$  18.69$  13.19$
  Q  0.6645  9.05$  8.11$  4.28$
  Q  0.6645  8.1$  9.25$  3.67$
  Q  -1.3290  8.53$  8.48$  3.7$
  Q  0.6645  5.93$  6.32$  19.99$
  Q  0.6645  5.45$  5.56$  18.75$
  Q  -1.3290  5.61$  6.24$  19.22$
  Q  0.6645  12.91$  19.41$  3.32$
  Q  0.6645  12.47$  19.11$  1.87$
  Q  -1.3290  12.34$  19.37$  2.68$
  Q  0.6645  16.91$  15.95$  6.92$
  Q  0.6645  16.71$  17.4$  7.26$
  Q  -1.3290  16.74$  16.74$  6.76$
  Q  0.6645  8.98$  20.31$  8.84$
  Q  0.6645  8.85$  20.41$  10.44$
  Q  -1.3290  8.78$  20.06$  9.66$
  Q  0.6645  11.82$  8.87$  16.6$
  Q  0.6645  12.93$  9.34$  17.45$
  Q  -1.3290  12.47$  8.76$  17.1$
  Q  0.6645  9.27$  11.44$  17.65$
  Q  0.6645  8.03$  11.35$  16.61$
  Q  -1.3290  8.86$  11.31$  16.88$
  Q  0.6645  4.79$  16.36$  4.55$
  Q  0.6645  6.31$  16.53$  4.45$
  Q  -1.3290  5.58$  16.32$  4.83$
  Q  0.6645  2.34$  14.29$  12.95$
  Q  0.6645  1.71$  15.54$  13.66$
  Q  -1.3290  2.21$  14.87$  13.56$
  Q  0.6645  7.37$  4.69$  15.94$
  Q  0.6645  6.39$  4.69$  14.74$
  Q  -1.3290  6.77$  4.36$  15.43$
  Q  0.6645  8.05$  17.6$  15.44$
  Q  0.6645  8.32$  17.28$  16.68$
  Q  -1.3290  7.91$  17.7$  16.21$
  Q  0.6645  15.27$  19.39$  3.22$
  Q  0.6645  14.98$  18.02$  3.88$
  Q  -1.3290  14.84$  18.85$  3.71$
  Q  0.6645  19.46$  12.41$  18.36$
  Q  0.6645  18.12$  12.11$  18.91$
  Q  -1.3290  18.63$  12.36$  18.34$
  Q  0.6645  5.87$  5.44$  11.54$
  Q  0.6645  5.02$  4.94$  12.76$
  Q  -1.3290  5.59$  4.85$  12.1$
  Q  0.6645  21.43$  6.26$  11.55$
  Q  0.6645  20.36$  5.11$  11.42$
  Q  -1.3290  20.65$  5.91$  11.65$
  Q  0.6645  20.01$  16.53$  9.89$
  Q  0.6645  20.81$  16.81$  11.14$
  Q  -1.3290  20.17$  16.91$  10.61$
  Q  0.6645  5.34$  14.34$  5.79$
  Q  0.6645  4.48$  13.34$  6.49$
  Q  -1.3290  5.05$  13.55$  5.93$
  Q  0.6645  8.54$  0.76$  17.99$
  Q  0.6645  9.1$  2.1$  18.05$
  Q  -1.3290  9.13$  1.29$  18.16$
  Q  0.6645  3.34$  16.87$  15.87$
  Q  0.6645  1.82$  17.13$  15.49$
  Q  -1.3290  2.5$  16.99$  16.01$
  Q  0.6645  5.68$  15.75$  16.17$
  Q  0.6645  5.55$  16.91$  15.06$
  Q  -1.3290  5.32$  16.21$  15.51$
  Q  0.6645  16.8$  13.13$  11.29$
  Q  0.6645  15.67$  13.36$  10.37$
  Q  -1.3290  16.02$  12.98$  11.01$
*
