! NoMOPrint PrintBasis #MINIPRINT SMALLPRINT LARGEPRINT
! ALLPOP XYZFILE
#! BP86 3-21G   TightSCF
! ENGRAD
! B3LYP NormalPNO PModel #DecontractAux
#! VerySlowConv 
 %maxcore 5000
 %scf  maxiter   500  end 

%pal
    nprocs 32
end

%basis
    NewGTO O    # New basis for oxygen
        "aug-cc-pVTZ"
    end
    NewGTO C    # New basis for carbon
        "aug-cc-pVTZ"
    end
    NewGTO H    # New basis for hydrogen
        "cc-pVTZ"
    end
end

* xyz 0   1
  C  10.94  12.31  9.49  #1
  H  10.63  11.4  8.94  #2
  H  11.57  12.89  8.84  #3
  C  11.47  11.99  10.88  #4
  H  12.5  11.7  10.73  #5
  H  11.48  12.91  11.48  #6
  C  10.68  10.8  11.47  #7
  H  10.05  10.48  10.73  #8
  H  10.16  11.16  12.36  #9
  C  11.59  9.68  11.97  #10
  H  12.54  10.03  12.2  #11
  H  11.88  8.98  11.12  #12
  O  11.12  8.83  13.06  #13
  H  10.2  8.7  12.98  #14
  O  9.62  12.96  9.71  #15
  H  9.31  13.14  8.79  #16
  O  8.69  14.45  11.92  #17
  H  9.11  13.87  11.24  #18
  H  9.02  14.33  12.81  #19
  O  15.41  9.32  11.32  #20
  H  15.23  9.32  12.28  #21
  H  14.67  8.76  11.04  #22
  O  12.6  15.11  14.03  #23
  H  13.22  15.85  14.07  #24
  H  12.91  14.52  13.3  #25
  O  13.02  10.22  7.6  #26
  H  12.3  9.69  7.27  #27
  H  13.68  9.52  7.51  #28
  O  8.89  8.26  8.84  #29
  H  9.32  8.86  8.25  #30
  H  8.49  7.59  8.28  #31
  O  13.18  6.31  11.94  #32
  H  13.37  5.39  12.13  #33
  H  12.21  6.32  11.95  #34
  O  12.3  17.95  12.94  #35
  H  12.41  17.12  12.43  #36
  H  11.37  17.95  13.25  #37
  O  14.33  12.59  7.31  #38
  H  13.62  11.94  7.27  #39
  H  14.79  12.34  8.09  #40
  O  12.72  13.41  16.26  #41
  H  12.55  13.73  15.36  #42
  H  12.77  14.23  16.76  #43
  O  6.59  5.98  10.66  #44
  H  6.95  6.04  11.58  #45
  H  7.15  6.55  10.07  #46
  O  6.34  15.98  11.36  #47
  H  7  15.36  11.69  #48
  H  5.51  15.69  11.79  #49
  O  15.1  9  14.01  #50
  H  14.31  8.61  14.37  #51
  H  15.72  8.19  13.86  #52
  O  12.58  8.82  15.66  #53
  H  12.53  7.98  16.16  #54
  H  12.14  8.82  14.8  #55
  O  7.89  9.77  13.15  #56
  H  7.45  10.6  13.36  #57
  H  7.77  9.84  12.22  #58
  O  12.43  15.71  10.88  #59
  H  12.93  15.6  10.08  #60
  H  11.52  15.64  10.52  #61
  O  10.58  9.32  6.42  #62
  H  10.03  10.12  6.27  #63
  H  10.19  8.71  5.72  #64
  O  14.96  11.88  10.02  #65
  H  14.36  12.28  10.64  #66
  H  15.12  11  10.24  #67
  O  14.77  8.29  6.58  #68
  H  14.44  8.49  5.68  #69
  H  15.52  7.69  6.51  #70
  O  8.38  5.86  7.29  #71
  H  8.9  5.21  7.71  #72
  H  7.6  5.41  6.95  #73
  O  14.21  13.37  12.58  #74
  H  14.91  13.87  12.19  #75
  H  14.62  12.67  13.1  #76
  O  10.44  6.83  10.74  #77
  H  9.89  7.25  10.11  #78
  H  11.02  6.27  10.26  #79
  O  8.62  7.74  5.11  #80
  H  8.5  7.16  5.89  #81
  H  8.96  7.08  4.46  #82
  O  17.91  8.92  10.41  #83
  H  16.99  9.12  10.58  #84
  H  18.09  9.2  9.49  #85
  O  8.66  13.36  7.06  #86
  H  8.11  12.57  7.19  #87
  H  8.12  13.97  6.56  #88
  O  16.47  11.36  13.89  #89
  H  15.92  10.63  14.19  #90
  H  16.3  12.14  14.47  #91
  O  7.55  10.11  10.26  #92
  H  7.23  9.29  9.89  #93
  H  7.72  10.62  9.44  #94
  O  8.89  8.41  15.56  #95
  H  8.28  7.67  15.88  #96
  H  8.44  8.76  14.75  #97
  O  10.03  16.48  10.11  #98
  H  9.81  16.56  9.2  #99
  H  9.24  16  10.49  #100
  O  16.6  10.25  5.89  #101
  H  16.8  11.24  5.95  #102
  H  15.86  9.99  6.51  #103
  O  13.7  7.87  9.8  #104
  H  14.36  7.47  9.23  #105
  H  13.44  7.21  10.51  #106
  O  10.06  14.96  14.77  #107
  H  9.88  14.29  15.48  #108
  H  11.04  15.09  14.58  #109
  Q  0.6645  14.3$  0.99$  16.54$
  Q  0.6645  13.44$  2.06$  15.84$
  Q  -1.3290  13.69$  1.57$  16.48$
  Q  0.6645  3.46$  18.51$  10.53$
  Q  0.6645  2.57$  18.56$  9.33$
  Q  -1.3290  3.22$  18.78$  9.78$
  Q  0.6645  18.22$  12.18$  1.56$
  Q  0.6645  18.12$  12.29$  2.96$
  Q  -1.3290  17.88$  11.95$  2.26$
  Q  0.6645  18.09$  8.52$  15.78$
  Q  0.6645  18$  7.11$  16.38$
  Q  -1.3290  18.07$  7.67$  15.75$
  Q  0.6645  10.17$  17.58$  7.17$
  Q  0.6645  11.49$  18.15$  6.99$
  Q  -1.3290  10.97$  17.56$  7.28$
  Q  0.6645  2.88$  17.93$  4.53$
  Q  0.6645  3.91$  17.26$  3.57$
  Q  -1.3290  3.27$  17.79$  3.77$
  Q  0.6645  17.8$  3.29$  6.22$
  Q  0.6645  17.34$  3.71$  7.58$
  Q  -1.3290  17.3$  3.73$  6.75$
  Q  0.6645  6.12$  12.65$  14.46$
  Q  0.6645  7.62$  12.62$  14.67$
  Q  -1.3290  6.9$  12.38$  14.27$
  Q  0.6645  5.88$  1.05$  12.36$
  Q  0.6645  5.84$  0.57$  13.79$
  Q  -1.3290  6.1$  1.06$  13.17$
  Q  0.6645  7.49$  4.43$  4.49$
  Q  0.6645  6.65$  5.76$  4.44$
  Q  -1.3290  7.01$  5.03$  4.12$
  Q  0.6645  10.71$  10.28$  0.86$
  Q  0.6645  9.53$  9.26$  0.7$
  Q  -1.3290  9.93$  10.02$  0.6$
  Q  0.6645  11.99$  16.16$  5.73$
  Q  0.6645  13.15$  15.51$  5.05$
  Q  -1.3290  12.42$  15.87$  5.1$
  Q  0.6645  4.02$  15.22$  2.58$
  Q  0.6645  4.81$  15.12$  3.77$
  Q  -1.3290  4.67$  15.44$  3.03$
  Q  0.6645  13.42$  3.92$  8.4$
  Q  0.6645  14.24$  2.69$  7.86$
  Q  -1.3290  13.87$  3.46$  7.84$
  Q  0.6645  4.69$  11.93$  6.1$
  Q  0.6645  4.26$  11.52$  4.74$
  Q  -1.3290  4.3$  12.05$  5.37$
  Q  0.6645  5.25$  12.23$  19.94$
  Q  0.6645  6.2$  11.21$  20.63$
  Q  -1.3290  5.45$  11.5$  20.34$
  Q  0.6645  12.74$  2.06$  18.28$
  Q  0.6645  11.94$  0.96$  18.96$
  Q  -1.3290  12.13$  1.74$  18.79$
  Q  0.6645  11.97$  18.29$  1.28$
  Q  0.6645  11.22$  17.05$  1.97$
  Q  -1.3290  11.43$  17.6$  1.36$
  Q  0.6645  18.1$  9.9$  7.08$
  Q  0.6645  19.05$  10.59$  7.97$
  Q  -1.3290  18.69$  9.91$  7.66$
  Q  0.6645  1.55$  14.41$  8.49$
  Q  0.6645  2.95$  14.11$  8.3$
  Q  -1.3290  2.16$  14.1$  8.07$
  Q  0.6645  12.64$  16.22$  8.02$
  Q  0.6645  13.32$  15.11$  7.39$
  Q  -1.3290  13.23$  15.66$  7.99$
  Q  0.6645  15.17$  5.4$  16.12$
  Q  0.6645  16.05$  4.32$  16.77$
  Q  -1.3290  15.59$  5.01$  16.76$
  Q  0.6645  14.32$  2.94$  5.17$
  Q  0.6645  15.7$  3.34$  5.52$
  Q  -1.3290  15.09$  3.12$  4.99$
  Q  0.6645  21.15$  8.52$  13.66$
  Q  0.6645  20.29$  7.6$  12.62$
  Q  -1.3290  21.01$  7.92$  13.03$
  Q  0.6645  10.96$  1.51$  7.1$
  Q  0.6645  9.75$  1.86$  8.16$
  Q  -1.3290  10.37$  2$  7.53$
  Q  0.6645  3.88$  13.95$  15.29$
  Q  0.6645  5.08$  14.78$  15.11$
  Q  -1.3290  4.62$  14.07$  15.01$
  Q  0.6645  6.28$  19.38$  12.92$
  Q  0.6645  5.54$  19.87$  14.27$
  Q  -1.3290  5.81$  19.32$  13.66$
  Q  0.6645  3.12$  4.49$  10.76$
  Q  0.6645  2.06$  5.44$  11.28$
  Q  -1.3290  2.52$  4.75$  11.26$
  Q  0.6645  4.13$  14.28$  19.2$
  Q  0.6645  4.65$  13.21$  18.19$
  Q  -1.3290  4.68$  13.7$  18.87$
  Q  0.6645  18.54$  13.77$  10.76$
  Q  0.6645  19.23$  14.91$  11.69$
  Q  -1.3290  18.97$  14.13$  11.45$
  Q  0.6645  17.17$  10.35$  2.84$
  Q  0.6645  16.8$  9.45$  4.03$
  Q  -1.3290  16.77$  9.71$  3.23$
  Q  0.6645  10.87$  13.7$  20.54$
  Q  0.6645  11.32$  15.25$  20.8$
  Q  -1.3290  10.87$  14.49$  20.87$
  Q  0.6645  12.91$  20.46$  14.8$
  Q  0.6645  13.08$  19.25$  13.77$
  Q  -1.3290  13.29$  19.79$  14.41$
  Q  0.6645  18.17$  18.89$  16.09$
  Q  0.6645  16.81$  18.69$  15.29$
  Q  -1.3290  17.54$  19.09$  15.49$
  Q  0.6645  5.75$  7.27$  7.81$
  Q  0.6645  5.21$  8.55$  8.42$
  Q  -1.3290  5.74$  7.89$  8.37$
  Q  0.6645  3.66$  9.51$  11.2$
  Q  0.6645  4.24$  10.84$  11.06$
  Q  -1.3290  3.63$  10.31$  11.02$
  Q  0.6645  17.77$  16.93$  2.73$
  Q  0.6645  17.89$  15.39$  2.79$
  Q  -1.3290  17.76$  16.17$  3.13$
  Q  0.6645  7.32$  4.22$  10.48$
  Q  0.6645  7.25$  3.15$  9.31$
  Q  -1.3290  7.56$  3.55$  10.02$
  Q  0.6645  8.81$  7.03$  1.89$
  Q  0.6645  8.47$  7.07$  0.43$
  Q  -1.3290  8.64$  7.43$  1.17$
  Q  0.6645  15.21$  15.75$  8.58$
  Q  0.6645  16.18$  14.49$  9.02$
  Q  -1.3290  15.92$  15.32$  8.79$
  Q  0.6645  18.17$  10.45$  17.44$
  Q  0.6645  17.7$  10.88$  16.1$
  Q  -1.3290  18.19$  10.49$  16.61$
  Q  0.6645  15.26$  17.37$  16.09$
  Q  0.6645  14.36$  18.26$  15.19$
  Q  -1.3290  14.93$  17.65$  15.37$
  Q  0.6645  8.19$  12.24$  20.42$
  Q  0.6645  8.89$  10.95$  21.08$
  Q  -1.3290  8.4$  11.4$  20.47$
  Q  0.6645  11.17$  17.92$  16.06$
  Q  0.6645  12.34$  18.79$  16.49$
  Q  -1.3290  11.82$  18.14$  16.52$
  Q  0.6645  19.73$  15.78$  7.32$
  Q  0.6645  18.9$  15.93$  8.54$
  Q  -1.3290  19.46$  15.57$  8.07$
  Q  0.6645  16.39$  6.87$  19.51$
  Q  0.6645  16.43$  6.24$  18.15$
  Q  -1.3290  16.61$  6.83$  18.69$
  Q  0.6645  12.39$  11.37$  3.7$
  Q  0.6645  12.9$  11.63$  5.16$
  Q  -1.3290  12.97$  11.57$  4.33$
  Q  0.6645  6.22$  18.74$  9.09$
  Q  0.6645  4.61$  18.72$  8.69$
  Q  -1.3290  5.47$  18.63$  8.57$
  Q  0.6645  3.7$  4.98$  17.53$
  Q  0.6645  4.81$  4.33$  16.51$
  Q  -1.3290  4.35$  4.93$  16.94$
  Q  0.6645  11.8$  22.32$  10.92$
  Q  0.6645  12.41$  20.95$  10.8$
  Q  -1.3290  11.81$  21.51$  10.74$
  Q  0.6645  6.54$  16.3$  5.28$
  Q  0.6645  5.97$  15.3$  6.28$
  Q  -1.3290  6.44$  15.57$  5.64$
  Q  0.6645  6.59$  10.36$  7.45$
  Q  0.6645  7.59$  10.95$  6.43$
  Q  -1.3290  7.27$  10.79$  7.2$
  Q  0.6645  15.84$  14.42$  14.28$
  Q  0.6645  15.06$  13.85$  15.44$
  Q  -1.3290  15.7$  13.93$  14.92$
  Q  0.6645  17.03$  12.47$  9.89$
  Q  0.6645  17.55$  12.93$  8.43$
  Q  -1.3290  17.5$  12.89$  9.3$
  Q  0.6645  4.93$  20.67$  8.79$
  Q  0.6645  3.77$  21.46$  8.25$
  Q  -1.3290  4.57$  21.32$  8.42$
  Q  0.6645  3.04$  7.34$  4.42$
  Q  0.6645  2.85$  8.44$  5.33$
  Q  -1.3290  3.27$  8.04$  4.78$
  Q  0.6645  17.14$  6.62$  5.02$
  Q  0.6645  16.79$  5.87$  6.29$
  Q  -1.3290  16.95$  6.56$  5.83$
  Q  0.6645  3.39$  10.14$  13.44$
  Q  0.6645  2.58$  11.2$  13.98$
  Q  -1.3290  3.05$  10.56$  14.05$
  Q  0.6645  6.08$  8.38$  17.59$
  Q  0.6645  4.65$  7.68$  17.59$
  Q  -1.3290  5.3$  8.16$  17.27$
  Q  0.6645  16.32$  16.24$  18.41$
  Q  0.6645  16.84$  17.46$  17.77$
  Q  -1.3290  16.26$  16.86$  17.86$
  Q  0.6645  3.85$  10.4$  8.91$
  Q  0.6645  3.71$  9.82$  7.52$
  Q  -1.3290  4.14$  10.05$  8.19$
  Q  0.6645  4.24$  18.77$  13.09$
  Q  0.6645  2.97$  18.06$  12.68$
  Q  -1.3290  3.57$  18.63$  12.6$
  Q  0.6645  3.66$  14.17$  11.48$
  Q  0.6645  3.89$  14.3$  13.03$
  Q  -1.3290  3.79$  14.59$  12.21$
  Q  0.6645  12.26$  -0.41$  8.57$
  Q  0.6645  13.43$  0.29$  7.85$
  Q  -1.3290  12.65$  0$  7.95$
  Q  0.6645  9.84$  18.93$  19.73$
  Q  0.6645  10.36$  18.61$  18.3$
  Q  -1.3290  9.97$  19.05$  18.87$
  Q  0.6645  13.68$  4.81$  6.15$
  Q  0.6645  13.8$  5.46$  4.81$
  Q  -1.3290  13.5$  5.36$  5.58$
  Q  0.6645  4.69$  17.21$  15.52$
  Q  0.6645  5.64$  17.23$  14.35$
  Q  -1.3290  5.23$  16.89$  14.98$
  Q  0.6645  19.68$  12.67$  8.16$
  Q  0.6645  20.25$  11.64$  9.18$
  Q  -1.3290  20.21$  12.05$  8.43$
  Q  0.6645  6.35$  8.91$  13.94$
  Q  0.6645  5.61$  8.15$  15.02$
  Q  -1.3290  6.04$  8.22$  14.29$
  Q  0.6645  20.43$  10.66$  14.34$
  Q  0.6645  20.32$  9.77$  15.74$
  Q  -1.3290  20.57$  10$  14.92$
  Q  0.6645  14.86$  13.87$  6.22$
  Q  0.6645  14.96$  14.15$  4.76$
  Q  -1.3290  14.97$  14.36$  5.56$
  Q  0.6645  9.38$  11.5$  2.12$
  Q  0.6645  8.74$  12.7$  2.4$
  Q  -1.3290  8.97$  11.96$  2.62$
  Q  0.6645  9$  3.13$  6.06$
  Q  0.6645  7.5$  2.69$  5.89$
  Q  -1.3290  8.28$  2.96$  5.63$
  Q  0.6645  21.11$  10.03$  10.52$
  Q  0.6645  19.65$  10.19$  11.01$
  Q  -1.3290  20.37$  10.41$  10.63$
  Q  0.6645  5.37$  3.43$  14.8$
  Q  0.6645  6.49$  2.55$  15.43$
  Q  -1.3290  5.88$  3.11$  15.43$
  Q  0.6645  9.66$  20.11$  6.74$
  Q  0.6645  11.1$  20.12$  6.21$
  Q  -1.3290  10.27$  20.18$  6.16$
  Q  0.6645  11.66$  11.97$  16.88$
  Q  0.6645  12.09$  10.53$  16.33$
  Q  -1.3290  11.66$  11.11$  16.83$
  Q  0.6645  4.46$  7.76$  12.61$
  Q  0.6645  3.11$  7.38$  11.86$
  Q  -1.3290  3.87$  7.79$  12$
  Q  0.6645  12.26$  3.4$  14.38$
  Q  0.6645  12.94$  2.53$  13.36$
  Q  -1.3290  12.88$  2.89$  14.08$
  Q  0.6645  13.93$  19.42$  10.33$
  Q  0.6645  13.17$  18.91$  11.61$
  Q  -1.3290  13.58$  19.47$  11.13$
  Q  0.6645  4.3$  9.22$  3.93$
  Q  0.6645  5.82$  9.7$  3.73$
  Q  -1.3290  4.95$  9.72$  3.61$
  Q  0.6645  8.83$  3.13$  12.57$
  Q  0.6645  7.87$  1.87$  12.73$
  Q  -1.3290  8.62$  2.32$  12.78$
  Q  0.6645  17.14$  16.68$  9.16$
  Q  0.6645  17.89$  17.64$  10.08$
  Q  -1.3290  17.65$  17.31$  9.34$
  Q  0.6645  13.84$  9.94$  4.09$
  Q  0.6645  14.55$  8.84$  3.38$
  Q  -1.3290  13.99$  9.13$  3.9$
  Q  0.6645  13.04$  6.03$  14.74$
  Q  0.6645  14.15$  6.44$  13.81$
  Q  -1.3290  13.82$  6.21$  14.53$
  Q  0.6645  5.71$  18.61$  6.15$
  Q  0.6645  6.81$  18.36$  4.98$
  Q  -1.3290  6.02$  18.49$  5.32$
  Q  0.6645  11.97$  9.34$  2.25$
  Q  0.6645  12.95$  10.35$  1.79$
  Q  -1.3290  12.22$  10.11$  2.05$
  Q  0.6645  1.27$  9.49$  8.97$
  Q  0.6645  1.99$  9.71$  10.28$
  Q  -1.3290  1.34$  9.45$  9.79$
  Q  0.6645  5.74$  16.85$  8.54$
  Q  0.6645  6.28$  15.74$  9.45$
  Q  -1.3290  6.03$  16.06$  8.73$
  Q  0.6645  10.63$  6.64$  3.36$
  Q  0.6645  10.12$  5.23$  3.25$
  Q  -1.3290  10.03$  6.02$  3.41$
  Q  0.6645  8.06$  14.47$  19.46$
  Q  0.6645  6.85$  13.68$  18.99$
  Q  -1.3290  7.68$  13.81$  19.12$
  Q  0.6645  5.82$  2.82$  7.6$
  Q  0.6645  5.57$  4.04$  8.36$
  Q  -1.3290  6.02$  3.58$  7.86$
  Q  0.6645  16.33$  13.28$  17.81$
  Q  0.6645  17.04$  14.37$  17.05$
  Q  -1.3290  16.86$  13.91$  17.72$
  Q  0.6645  15.13$  8.99$  16.49$
  Q  0.6645  15.71$  8.74$  17.85$
  Q  -1.3290  15.16$  9.09$  17.32$
  Q  0.6645  9.76$  11.67$  4.51$
  Q  0.6645  9.74$  12.46$  5.82$
  Q  -1.3290  9.97$  11.86$  5.31$
  Q  0.6645  2.57$  15.95$  12.64$
  Q  0.6645  1.77$  16.65$  13.7$
  Q  -1.3290  2.07$  16.53$  12.94$
  Q  0.6645  8.54$  21.03$  8.4$
  Q  0.6645  9.03$  19.61$  8.85$
  Q  -1.3290  8.61$  20.2$  8.36$
  Q  0.6645  8$  7.16$  17.98$
  Q  0.6645  8.6$  8.43$  18.23$
  Q  -1.3290  7.99$  7.92$  18.3$
  Q  0.6645  10.95$  16.11$  3.88$
  Q  0.6645  9.88$  15.57$  2.85$
  Q  -1.3290  10.23$  16.15$  3.39$
  Q  0.6645  11.42$  3.37$  8.7$
  Q  0.6645  11.73$  4.94$  8.9$
  Q  -1.3290  11.59$  4.11$  9.13$
  Q  0.6645  13.44$  8.47$  17.82$
  Q  0.6645  13.72$  7.03$  18.43$
  Q  -1.3290  13.24$  7.66$  18.09$
  Q  0.6645  6.98$  2.68$  18.62$
  Q  0.6645  6.98$  1.24$  18.84$
  Q  -1.3290  6.63$  1.94$  18.65$
  Q  0.6645  10.97$  4.6$  19.89$
  Q  0.6645  12.32$  4.03$  20.21$
  Q  -1.3290  11.65$  4.54$  20.34$
  Q  0.6645  13.22$  20.29$  6.21$
  Q  0.6645  13.09$  19.09$  5.29$
  Q  -1.3290  12.91$  19.51$  6$
  Q  0.6645  19.62$  3.69$  12.26$
  Q  0.6645  18.66$  3.84$  10.92$
  Q  -1.3290  18.88$  3.71$  11.79$
  Q  0.6645  11.87$  13.84$  0.84$
  Q  0.6645  12.84$  14.81$  1.3$
  Q  -1.3290  12.57$  14.03$  1.19$
  Q  0.6645  8.09$  18.35$  7.39$
  Q  0.6645  7.62$  16.89$  7.61$
  Q  -1.3290  8.16$  17.51$  7.41$
  Q  0.6645  9.44$  10.09$  19.47$
  Q  0.6645  10.59$  9.81$  18.45$
  Q  -1.3290  10.11$  9.62$  19.11$
  Q  0.6645  12.38$  6.25$  -0.29$
  Q  0.6645  12.82$  7.76$  -0.25$
  Q  -1.3290  12.74$  6.96$  0.04$
  Q  0.6645  18.53$  11.43$  13.36$
  Q  0.6645  19.23$  12.74$  12.83$
  Q  -1.3290  19.18$  11.94$  13.16$
  Q  0.6645  6.23$  6.17$  16.85$
  Q  0.6645  7.11$  5.12$  16.05$
  Q  -1.3290  6.95$  5.86$  16.44$
  Q  0.6645  10.71$  2.62$  17.91$
  Q  0.6645  10.65$  3.46$  16.65$
  Q  -1.3290  10.33$  3.01$  17.27$
  Q  0.6645  12.87$  16.55$  17.33$
  Q  0.6645  14.18$  16.04$  17.65$
  Q  -1.3290  13.39$  15.93$  17.5$
  Q  0.6645  2.48$  7.18$  15.43$
  Q  0.6645  3.43$  5.96$  15.42$
  Q  -1.3290  2.85$  6.49$  15.12$
  Q  0.6645  8.14$  15.42$  1.35$
  Q  0.6645  9.25$  14.71$  0.72$
  Q  -1.3290  8.7$  14.81$  1.31$
  Q  0.6645  15.07$  19.97$  12.29$
  Q  0.6645  15.59$  20.41$  13.69$
  Q  -1.3290  15.65$  20.2$  12.87$
  Q  0.6645  12.49$  7.09$  2$
  Q  0.6645  12.75$  7.91$  3.41$
  Q  -1.3290  12.39$  7.31$  2.9$
  Q  0.6645  2.12$  8.54$  16.68$
  Q  0.6645  1.78$  9.25$  15.23$
  Q  -1.3290  1.68$  8.74$  15.92$
  Q  0.6645  5.1$  7$  5.71$
  Q  0.6645  4.84$  5.71$  6.51$
  Q  -1.3290  5.31$  6.3$  6.14$
  Q  0.6645  17.3$  6.99$  14.26$
  Q  0.6645  16.43$  5.92$  13.46$
  Q  -1.3290  16.77$  6.7$  13.64$
  Q  0.6645  7.58$  4.8$  17.83$
  Q  0.6645  8.63$  3.75$  18.25$
  Q  -1.3290  7.99$  4.31$  18.36$
  Q  0.6645  12.25$  7.2$  8.23$
  Q  0.6645  12.45$  6.34$  7.1$
  Q  -1.3290  12.19$  6.46$  7.88$
  Q  0.6645  8.61$  1.97$  14.53$
  Q  0.6645  9.16$  2.01$  16.03$
  Q  -1.3290  8.69$  1.71$  15.35$
  Q  0.6645  15.96$  19.09$  9.33$
  Q  0.6645  15.1$  19.69$  8.2$
  Q  -1.3290  15.37$  19.57$  9.03$
  Q  0.6645  16.39$  2.02$  16.42$
  Q  0.6645  17.66$  2.68$  15.83$
  Q  -1.3290  16.84$  2.66$  16.05$
  Q  0.6645  16.31$  3.61$  14.17$
  Q  0.6645  17.3$  3.92$  12.89$
  Q  -1.3290  16.56$  3.9$  13.4$
  Q  0.6645  10.55$  19.94$  10.8$
  Q  0.6645  10.14$  18.46$  10.64$
  Q  -1.3290  9.99$  19.3$  10.73$
  Q  0.6645  17.57$  4.59$  9.42$
  Q  0.6645  18.99$  4.68$  9.18$
  Q  -1.3290  18.28$  4.24$  9.24$
  Q  0.6645  19.36$  15.95$  13.9$
  Q  0.6645  18.4$  17.07$  13.35$
  Q  -1.3290  18.81$  16.32$  13.35$
  Q  0.6645  15.18$  3.55$  11.84$
  Q  0.6645  13.99$  3.4$  10.82$
  Q  -1.3290  14.64$  3.78$  11.2$
  Q  0.6645  9.26$  16.42$  15.08$
  Q  0.6645  8.89$  17.86$  14.73$
  Q  -1.3290  8.93$  17.18$  15.22$
  Q  0.6645  13.82$  12.59$  20.99$
  Q  0.6645  13.89$  13.37$  22.23$
  Q  -1.3290  14.25$  12.89$  21.64$
  Q  0.6645  7.15$  17.14$  18.47$
  Q  0.6645  7.38$  16.95$  16.94$
  Q  -1.3290  6.96$  17.21$  17.65$
  Q  0.6645  8.71$  5.51$  13.23$
  Q  0.6645  9.82$  5.73$  12.22$
  Q  -1.3290  9.49$  5.36$  12.89$
  Q  0.6645  9.53$  19.7$  13.95$
  Q  0.6645  9.87$  19.23$  12.54$
  Q  -1.3290  9.76$  19.1$  13.41$
  Q  0.6645  14.84$  11.03$  17.12$
  Q  0.6645  14.07$  12.29$  16.93$
  Q  -1.3290  14.75$  11.84$  16.95$
  Q  0.6645  9.12$  19.16$  4.56$
  Q  0.6645  9.03$  17.76$  4.04$
  Q  -1.3290  8.72$  18.5$  4.24$
  Q  0.6645  16.58$  17$  4.49$
  Q  0.6645  15.54$  16.53$  5.53$
  Q  -1.3290  15.9$  17.08$  5.02$
  Q  0.6645  4.73$  3$  12.44$
  Q  0.6645  3.62$  4.04$  12.75$
  Q  -1.3290  4.34$  3.62$  12.85$
  Q  0.6645  10.69$  5.21$  14.46$
  Q  0.6645  11$  5.66$  16.01$
  Q  -1.3290  11.12$  5.28$  15.24$
  Q  0.6645  7.97$  6.9$  19.99$
  Q  0.6645  8.09$  5.43$  20.18$
  Q  -1.3290  8.06$  6.23$  20.46$
  Q  0.6645  15.73$  9.1$  21.47$
  Q  0.6645  16.46$  9.63$  20.35$
  Q  -1.3290  15.98$  9.08$  20.72$
  Q  0.6645  19.69$  12.91$  15.2$
  Q  0.6645  20.11$  12.83$  16.68$
  Q  -1.3290  20.01$  13.18$  15.92$
  Q  0.6645  2.01$  13.37$  16.46$
  Q  0.6645  1.88$  13.1$  14.92$
  Q  -1.3290  2.13$  13.51$  15.64$
  Q  0.6645  2.84$  13.5$  4.93$
  Q  0.6645  1.95$  14.14$  5.97$
  Q  -1.3290  2.21$  13.99$  5.18$
  Q  0.6645  1.59$  10.32$  6.85$
  Q  0.6645  1.26$  8.72$  6.84$
  Q  -1.3290  1.78$  9.43$  6.86$
  Q  0.6645  14.56$  12.66$  3.4$
  Q  0.6645  15.84$  13.01$  2.76$
  Q  -1.3290  15.14$  13.18$  3.17$
  Q  0.6645  4.43$  20.76$  6.47$
  Q  0.6645  4.69$  19.82$  5.33$
  Q  -1.3290  4.22$  20.34$  5.8$
  Q  0.6645  15.71$  10.28$  1.67$
  Q  0.6645  15.11$  11.21$  0.64$
  Q  -1.3290  15.11$  10.54$  1.14$
  Q  0.6645  10.62$  2.15$  12.19$
  Q  0.6645  11.24$  3.1$  10.97$
  Q  -1.3290  11.27$  2.52$  11.63$
  Q  0.6645  6.65$  6.42$  13.62$
  Q  0.6645  6.21$  5.01$  12.95$
  Q  -1.3290  6.76$  5.63$  13.26$
  Q  0.6645  18.05$  6.83$  12.36$
  Q  0.6645  18.62$  7.71$  11.22$
  Q  -1.3290  18.65$  7.07$  11.79$
  Q  0.6645  7.75$  9.41$  4.68$
  Q  0.6645  7.96$  10.72$  4.08$
  Q  -1.3290  7.51$  10.16$  4.52$
  Q  0.6645  14.68$  19.31$  3.29$
  Q  0.6645  14.21$  17.8$  3.52$
  Q  -1.3290  14.11$  18.67$  3.35$
  Q  0.6645  4.79$  10.53$  17.35$
  Q  0.6645  4.26$  10.92$  15.97$
  Q  -1.3290  4.44$  11.01$  16.81$
  Q  0.6645  6.52$  12.66$  11.9$
  Q  0.6645  6.51$  11.38$  11.14$
  Q  -1.3290  6.17$  12.08$  11.38$
  Q  0.6645  9.21$  11.97$  16.33$
  Q  0.6645  8.65$  13.22$  17.07$
  Q  -1.3290  9.07$  12.79$  16.51$
  Q  0.6645  21.91$  12.08$  11.09$
  Q  0.6645  20.78$  13.05$  11.3$
  Q  -1.3290  21.58$  12.84$  11.24$
  Q  0.6645  16.5$  6.72$  10.4$
  Q  0.6645  15.5$  5.6$  10.05$
  Q  -1.3290  16.15$  6.11$  9.95$
  Q  0.6645  7.3$  9.24$  1.17$
  Q  0.6645  6.07$  10.19$  1.58$
  Q  -1.3290  6.52$  9.66$  1.1$
  Q  0.6645  7.71$  18.72$  11.23$
  Q  0.6645  6.44$  17.75$  10.98$
  Q  -1.3290  6.99$  18.42$  10.85$
  Q  0.6645  16.84$  15.66$  12.87$
  Q  0.6645  15.7$  16.53$  13.65$
  Q  -1.3290  16.05$  15.87$  13.21$
  Q  0.6645  13.09$  9.75$  20.36$
  Q  0.6645  11.59$  9.34$  20.41$
  Q  -1.3290  12.36$  9.5$  20.72$
  Q  0.6645  11.75$  11.44$  20.17$
  Q  0.6645  12.05$  11.94$  18.89$
  Q  -1.3290  12.12$  11.99$  19.71$
  Q  0.6645  17.07$  13.37$  6.01$
  Q  0.6645  18.39$  12.64$  6.3$
  Q  -1.3290  17.55$  12.82$  6.39$
  Q  0.6645  15.88$  18.81$  5.97$
  Q  0.6645  15.35$  20.31$  5.7$
  Q  -1.3290  15.75$  19.67$  6.14$
  Q  0.6645  4.95$  5.57$  9.78$
  Q  0.6645  3.85$  5.29$  8.69$
  Q  -1.3290  4.34$  5.13$  9.33$
  Q  0.6645  4.9$  14.5$  8.89$
  Q  0.6645  4.87$  13.11$  9.5$
  Q  -1.3290  4.56$  13.81$  9.21$
  Q  0.6645  -0.06$  11.55$  6.78$
  Q  0.6645  1.23$  12.44$  7.04$
  Q  -1.3290  0.72$  11.86$  6.66$
  Q  0.6645  9.88$  0.61$  9.88$
  Q  0.6645  8.58$  1.52$  10.11$
  Q  -1.3290  9.12$  0.98$  9.68$
  Q  0.6645  6.2$  16.09$  1.79$
  Q  0.6645  6.69$  17.43$  1.34$
  Q  -1.3290  6.6$  16.62$  1.29$
  Q  0.6645  10.9$  7.22$  17.87$
  Q  0.6645  9.96$  7.32$  16.77$
  Q  -1.3290  10.32$  6.91$  17.38$
  Q  0.6645  18.3$  19.39$  11.14$
  Q  0.6645  17.39$  19.03$  12.29$
  Q  -1.3290  17.99$  18.87$  11.73$
  Q  0.6645  19.99$  6.03$  10.37$
  Q  0.6645  21.03$  4.85$  9.86$
  Q  -1.3290  20.43$  5.48$  9.81$
*
