! NoMOPrint PrintBasis #MINIPRINT SMALLPRINT LARGEPRINT
! ALLPOP XYZFILE
#! BP86 3-21G   TightSCF
! ENGRAD
! B3LYP NormalPNO PModel #DecontractAux
#! VerySlowConv 
 %maxcore 5000
 %scf  maxiter   500  end 

%pal
    nprocs 32
end

%basis
    NewGTO O    # New basis for oxygen
        "aug-cc-pVTZ"
    end
    NewGTO C    # New basis for carbon
        "aug-cc-pVTZ"
    end
    NewGTO H    # New basis for hydrogen
        "cc-pVTZ"
    end
end

* xyz 0   1
  C  10.28  12.65  10.63  #1
  H  9.61  13.58  10.62  #2
  H  9.64  11.74  10.51  #3
  C  11.03  12.47  11.93  #4
  H  11.76  13.28  11.96  #5
  H  10.37  12.8  12.69  #6
  C  11.69  11.11  12.08  #7
  H  12.34  11.09  13  #8
  H  12.42  10.84  11.29  #9
  C  10.73  9.94  12.04  #10
  H  10.2  9.9  11.09  #11
  H  10.03  10.14  12.86  #12
  O  11.44  8.75  12.24  #13
  H  11.37  8.45  13.17  #14
  O  11.22  12.75  9.6  #15
  H  10.65  13.03  8.86  #16
  O  14.32  13.89  12.37  #17
  H  14.59  12.96  12.24  #18
  H  13.88  13.76  13.26  #19
  O  7.7  9.79  10.46  #20
  H  7.77  10.16  11.32  #21
  H  7.16  10.37  9.92  #22
  O  8.99  9.81  7.77  #23
  H  9.2  8.91  7.59  #24
  H  9.12  9.86  8.7  #25
  O  8  16.19  9.79  #26
  H  8.85  16.31  10.13  #27
  H  7.84  17.06  9.39  #28
  O  8.26  8.15  13.5  #29
  H  8.36  7.43  12.88  #30
  H  7.81  7.8  14.32  #31
  O  6.89  8.01  15.69  #32
  H  7.44  8.37  16.39  #33
  H  6.35  7.34  16.24  #34
  O  7.11  13.49  8.91  #35
  H  7.28  14.4  9.06  #36
  H  7.23  13.38  8  #37
  O  10.58  8.52  14.95  #38
  H  10.93  7.63  15.04  #39
  H  9.76  8.36  14.44  #40
  O  8.22  6.83  5.51  #41
  H  7.92  6.06  6  #42
  H  9.01  7.04  6.08  #43
  O  11.27  16.3  10.75  #44
  H  11.01  17.24  10.72  #45
  H  11.31  15.97  9.89  #46
  O  16.78  15.06  13.75  #47
  H  16.73  14.56  14.56  #48
  H  16.03  14.68  13.32  #49
  O  10.03  11.6  5.74  #50
  H  10.88  11.43  5.22  #51
  H  9.98  10.99  6.51  #52
  O  9.82  18.56  11.38  #53
  H  9.11  17.96  11.83  #54
  H  9.32  19.02  10.69  #55
  O  6.52  10.5  15.13  #56
  H  5.6  10.51  15.27  #57
  H  6.7  9.54  15  #58
  O  5.57  15.95  11.16  #59
  H  4.93  15.66  10.51  #60
  H  6.48  15.93  10.72  #61
  O  15.52  11.52  11.71  #62
  H  15.4  10.54  11.69  #63
  H  16.33  11.68  12.29  #64
  O  4.63  9.62  9.39  #65
  H  4.66  9.06  10.2  #66
  H  4.59  10.46  9.87  #67
  O  13.08  7.24  10.49  #68
  H  12.65  6.67  9.81  #69
  H  12.4  7.72  11.05  #70
  O  13.66  13.98  9.64  #71
  H  13.85  14.17  10.57  #72
  H  12.89  13.37  9.72  #73
  O  7.4  18.8  10.01  #74
  H  6.58  19.07  9.6  #75
  H  7.17  18.68  10.92  #76
  O  10.41  7.4  7.21  #77
  H  10.61  6.63  7.82  #78
  H  11.19  7.86  6.93  #79
  O  8.87  16.34  12.7  #80
  H  8.33  15.56  12.83  #81
  H  9.81  16.1  12.76  #82
  O  7.3  6.98  10.55  #83
  H  8.24  6.64  10.53  #84
  H  7.42  7.92  10.61  #85
  O  10.76  13.9  7.05  #86
  H  10.68  13.14  6.41  #87
  H  11.71  14.12  7.06  #88
  O  12.4  6.56  14.69  #89
  H  12.66  6.26  15.64  #90
  H  13.28  6.47  14.3  #91
  O  13.92  13.49  15.29  #92
  H  14.8  13.1  15.5  #93
  H  14  14.4  15.55  #94
  O  5.09  8.6  12.28  #95
  H  4.9  8.98  13.13  #96
  H  5.93  8.17  12.45  #97
  O  6.29  10.3  7.48  #98
  H  5.58  10.06  8.16  #99
  H  7.06  9.7  7.63  #100
  O  7.22  11.79  12.72  #101
  H  6.5  11.8  12.05  #102
  H  6.79  11.29  13.41  #103
  Q  0.6645  8.15$  8.12$  4.22$
  Q  0.6645  8.34$  8.37$  2.84$
  Q  -1.3290  8.08$  8.58$  3.57$
  Q  0.6645  14.7$  9.39$  21.48$
  Q  0.6645  15.91$  8.39$  21.32$
  Q  -1.3290  15.5$  9.12$  21.47$
  Q  0.6645  17.87$  9.71$  16.28$
  Q  0.6645  16.65$  9$  15.77$
  Q  -1.3290  17.1$  9.35$  16.35$
  Q  0.6645  13.71$  0.25$  9.67$
  Q  0.6645  15.12$  0.3$  10.16$
  Q  -1.3290  14.46$  0.62$  9.76$
  Q  0.6645  3.45$  8.74$  7.9$
  Q  0.6645  1.95$  8.8$  8$
  Q  -1.3290  2.68$  8.54$  7.69$
  Q  0.6645  13.44$  12.37$  4.53$
  Q  0.6645  12.98$  13.72$  5.02$
  Q  -1.3290  12.91$  13.01$  4.61$
  Q  0.6645  1.33$  10.36$  16.81$
  Q  0.6645  1.96$  9.86$  15.49$
  Q  -1.3290  1.72$  10.43$  16.06$
  Q  0.6645  9.24$  13.92$  21.43$
  Q  0.6645  10.53$  13.3$  20.99$
  Q  -1.3290  9.84$  13.74$  20.88$
  Q  0.6645  15.25$  9.77$  6.78$
  Q  0.6645  15.55$  8.8$  5.68$
  Q  -1.3290  15.1$  9.41$  6.03$
  Q  0.6645  17.27$  14.19$  9.67$
  Q  0.6645  17.18$  15.29$  10.75$
  Q  -1.3290  17.49$  14.93$  10.05$
  Q  0.6645  18.23$  17.63$  15.3$
  Q  0.6645  17.56$  16.92$  16.59$
  Q  -1.3290  18.17$  17.36$  16.11$
  Q  0.6645  13.78$  15.45$  6.59$
  Q  0.6645  13.63$  14.84$  8$
  Q  -1.3290  13.47$  14.96$  7.19$
  Q  0.6645  14.88$  6.56$  5.28$
  Q  0.6645  15.75$  6.07$  6.41$
  Q  -1.3290  15.57$  6.54$  5.74$
  Q  0.6645  15.54$  15.9$  16.9$
  Q  0.6645  16.08$  16.56$  18.14$
  Q  -1.3290  16.14$  16.16$  17.4$
  Q  0.6645  9.5$  15.67$  6.41$
  Q  0.6645  8.33$  16.46$  6.16$
  Q  -1.3290  9.14$  16.31$  6.08$
  Q  0.6645  12.49$  0.79$  16.92$
  Q  0.6645  11.87$  -0.21$  17.98$
  Q  -1.3290  12.47$  0.16$  17.5$
  Q  0.6645  6.92$  15.99$  17.65$
  Q  0.6645  7.09$  16.76$  19.05$
  Q  -1.3290  6.74$  16.2$  18.5$
  Q  0.6645  3.97$  7.19$  11.74$
  Q  0.6645  2.45$  6.9$  11.55$
  Q  -1.3290  3.29$  6.72$  11.61$
  Q  0.6645  10.86$  17.36$  0.58$
  Q  0.6645  10.61$  15.79$  0.41$
  Q  -1.3290  10.99$  16.55$  0.29$
  Q  0.6645  9.29$  6.76$  16.6$
  Q  0.6645  10.26$  5.63$  16.69$
  Q  -1.3290  9.79$  6.18$  16.27$
  Q  0.6645  5.35$  12.61$  19.51$
  Q  0.6645  6.29$  11.48$  18.84$
  Q  -1.3290  5.56$  11.93$  18.99$
  Q  0.6645  13.94$  19.27$  16.54$
  Q  0.6645  13.43$  20.62$  16.88$
  Q  -1.3290  13.97$  20.09$  16.49$
  Q  0.6645  13.09$  17.06$  17.15$
  Q  0.6645  12.66$  17.93$  18.32$
  Q  -1.3290  12.93$  17.79$  17.53$
  Q  0.6645  16.61$  12.79$  4.08$
  Q  0.6645  18.11$  12.46$  3.64$
  Q  -1.3290  17.48$  12.84$  4.1$
  Q  0.6645  14.6$  3.56$  13.32$
  Q  0.6645  15.52$  2.41$  13.78$
  Q  -1.3290  14.8$  2.75$  13.53$
  Q  0.6645  1.73$  12.96$  10.05$
  Q  0.6645  2.43$  12.73$  8.7$
  Q  -1.3290  2.26$  12.62$  9.52$
  Q  0.6645  12.88$  20.32$  6.59$
  Q  0.6645  12.69$  19.16$  7.48$
  Q  -1.3290  12.64$  19.57$  6.75$
  Q  0.6645  7.1$  11.61$  6.69$
  Q  0.6645  8.36$  12.31$  5.88$
  Q  -1.3290  7.55$  12.28$  6.27$
  Q  0.6645  10.42$  11.07$  2.87$
  Q  0.6645  9.63$  9.9$  3.55$
  Q  -1.3290  10.32$  10.26$  3.2$
  Q  0.6645  13.28$  4.12$  16.87$
  Q  0.6645  14.44$  5.17$  16.89$
  Q  -1.3290  13.63$  4.89$  16.98$
  Q  0.6645  3.35$  13.34$  17.27$
  Q  0.6645  3.25$  14.1$  18.57$
  Q  -1.3290  3.09$  13.99$  17.76$
  Q  0.6645  18.45$  12.05$  12.98$
  Q  0.6645  18.43$  10.53$  13.33$
  Q  -1.3290  18.1$  11.32$  13.14$
  Q  0.6645  12.1$  17.58$  13.33$
  Q  0.6645  12.19$  16.39$  12.46$
  Q  -1.3290  12.17$  16.78$  13.19$
  Q  0.6645  15.07$  12.98$  9.4$
  Q  0.6645  16.07$  12.12$  10.11$
  Q  -1.3290  15.85$  12.67$  9.52$
  Q  0.6645  0.33$  10.16$  7.88$
  Q  0.6645  1.5$  10.6$  8.86$
  Q  -1.3290  0.78$  10.19$  8.61$
  Q  0.6645  12.48$  15.57$  19.02$
  Q  0.6645  12.46$  14.64$  17.82$
  Q  -1.3290  12.85$  15.05$  18.42$
  Q  0.6645  15.48$  11.31$  18.44$
  Q  0.6645  16.01$  10.14$  17.73$
  Q  -1.3290  15.5$  10.53$  18.28$
  Q  0.6645  17.22$  17.3$  12.97$
  Q  0.6645  18.74$  16.88$  13.14$
  Q  -1.3290  18.04$  17.4$  13.19$
  Q  0.6645  5.88$  13.34$  5.48$
  Q  0.6645  4.84$  13.31$  4.49$
  Q  -1.3290  5.33$  13.69$  5.03$
  Q  0.6645  13.58$  2.42$  9.49$
  Q  0.6645  12.39$  2.57$  8.37$
  Q  -1.3290  12.91$  2.79$  9.06$
  Q  0.6645  12.48$  20.28$  10.08$
  Q  0.6645  11.44$  21.36$  10.09$
  Q  -1.3290  12.23$  21.06$  10.09$
  Q  0.6645  12.77$  12.6$  17.9$
  Q  0.6645  12.54$  12.29$  16.51$
  Q  -1.3290  12.36$  12.23$  17.29$
  Q  0.6645  14.4$  2.63$  6.16$
  Q  0.6645  13.13$  3.57$  5.66$
  Q  -1.3290  13.77$  2.92$  5.65$
  Q  0.6645  13.37$  4.41$  20.57$
  Q  0.6645  14.63$  3.71$  20.99$
  Q  -1.3290  14$  3.89$  20.44$
  Q  0.6645  17.77$  4.59$  16.46$
  Q  0.6645  19.11$  3.62$  16.4$
  Q  -1.3290  18.48$  4.2$  16.14$
  Q  0.6645  14.96$  13.92$  18.84$
  Q  0.6645  16.37$  13.7$  19.17$
  Q  -1.3290  15.57$  13.45$  19.07$
  Q  0.6645  20.74$  10.4$  9.74$
  Q  0.6645  20.29$  11.84$  9.96$
  Q  -1.3290  20.28$  11$  10.11$
  Q  0.6645  21.05$  12.99$  16.04$
  Q  0.6645  20.11$  12.88$  14.9$
  Q  -1.3290  20.38$  12.66$  15.63$
  Q  0.6645  11.06$  19.26$  5.78$
  Q  0.6645  10.03$  18.12$  5.77$
  Q  -1.3290  10.32$  18.89$  5.56$
  Q  0.6645  7.22$  10.9$  22.5$
  Q  0.6645  7.13$  10.53$  21$
  Q  -1.3290  6.93$  10.49$  21.83$
  Q  0.6645  11.78$  5.27$  5.16$
  Q  0.6645  11.72$  5.16$  6.7$
  Q  -1.3290  11.58$  4.92$  5.88$
  Q  0.6645  15.84$  7.76$  13.5$
  Q  0.6645  17.25$  8.1$  13.77$
  Q  -1.3290  16.51$  7.83$  14.01$
  Q  0.6645  6.66$  6.89$  20.8$
  Q  0.6645  6.29$  8.02$  19.69$
  Q  -1.3290  6.2$  7.52$  20.39$
  Q  0.6645  15.45$  17.48$  4.74$
  Q  0.6645  16.9$  16.83$  4.71$
  Q  -1.3290  16.22$  17.28$  4.42$
  Q  0.6645  7.17$  16.57$  3.5$
  Q  0.6645  8.67$  16.89$  3.85$
  Q  -1.3290  8.01$  16.7$  3.35$
  Q  0.6645  7.12$  13.89$  18.81$
  Q  0.6645  8.5$  13.62$  19.34$
  Q  -1.3290  7.85$  13.49$  18.83$
  Q  0.6645  10.8$  4.81$  19.25$
  Q  0.6645  10.67$  3.6$  18.35$
  Q  -1.3290  10.49$  4.36$  18.62$
  Q  0.6645  14.93$  13.65$  21.15$
  Q  0.6645  14.48$  14.65$  22.28$
  Q  -1.3290  14.79$  13.93$  21.93$
  Q  0.6645  6.92$  2.39$  19.03$
  Q  0.6645  8.03$  2.67$  17.96$
  Q  -1.3290  7.4$  2.87$  18.53$
  Q  0.6645  4.14$  1.77$  9.63$
  Q  0.6645  4.23$  3.27$  9.99$
  Q  -1.3290  4.53$  2.52$  9.71$
  Q  0.6645  7.64$  12.93$  16.96$
  Q  0.6645  7.1$  12.05$  15.76$
  Q  -1.3290  7.27$  12.78$  16.18$
  Q  0.6645  19.77$  16.68$  11.38$
  Q  0.6645  20.9$  16.67$  12.45$
  Q  -1.3290  20.26$  16.34$  12.02$
  Q  0.6645  15.04$  5.17$  11.76$
  Q  0.6645  13.61$  5.71$  12.03$
  Q  -1.3290  14.35$  5.37$  12.23$
  Q  0.6645  4.59$  3.13$  15.47$
  Q  0.6645  6.07$  3.23$  16.04$
  Q  -1.3290  5.26$  2.93$  15.96$
  Q  0.6645  6.32$  2.03$  10.13$
  Q  0.6645  7.69$  2.64$  10.33$
  Q  -1.3290  7.08$  2.14$  10.5$
  Q  0.6645  9.52$  4.33$  3.3$
  Q  0.6645  9.61$  5.52$  4.23$
  Q  -1.3290  9.8$  5.07$  3.56$
  Q  0.6645  11.37$  6.98$  20.7$
  Q  0.6645  11.52$  7.68$  22.06$
  Q  -1.3290  11.16$  7.17$  21.5$
  Q  0.6645  8.01$  0.64$  16.23$
  Q  0.6645  9.14$  1.32$  15.52$
  Q  -1.3290  8.74$  1$  16.21$
  Q  0.6645  18.74$  7.62$  10.18$
  Q  0.6645  19.51$  6.32$  10.67$
  Q  -1.3290  18.89$  6.91$  10.67$
  Q  0.6645  7.28$  20.03$  5.2$
  Q  0.6645  8.57$  19.73$  5.75$
  Q  -1.3290  7.77$  19.84$  5.84$
  Q  0.6645  6.56$  12.8$  1.89$
  Q  0.6645  7.52$  12.16$  2.82$
  Q  -1.3290  7.3$  12.51$  2.12$
  Q  0.6645  9.09$  21.62$  9.42$
  Q  0.6645  9.76$  22.37$  10.58$
  Q  -1.3290  9.68$  21.82$  9.97$
  Q  0.6645  3.31$  16.51$  9.13$
  Q  0.6645  2.79$  15.26$  9.77$
  Q  -1.3290  3.36$  15.74$  9.4$
  Q  0.6645  20.33$  10.69$  12.12$
  Q  0.6645  21.59$  10.77$  13.07$
  Q  -1.3290  20.89$  10.4$  12.73$
  Q  0.6645  16.19$  11.36$  8.38$
  Q  0.6645  17.2$  10.54$  7.54$
  Q  -1.3290  16.47$  10.67$  7.97$
  Q  0.6645  10.29$  19.47$  16.61$
  Q  0.6645  11.28$  18.33$  16.6$
  Q  -1.3290  10.68$  18.81$  16.27$
  Q  0.6645  12.6$  4.79$  8.73$
  Q  0.6645  13.4$  6.05$  8.04$
  Q  -1.3290  12.73$  5.57$  8.38$
  Q  0.6645  9.43$  3.88$  13.48$
  Q  0.6645  9.36$  2.51$  12.85$
  Q  -1.3290  9.08$  3.12$  13.35$
  Q  0.6645  10.6$  1.33$  6.71$
  Q  0.6645  10.84$  0.77$  8.12$
  Q  -1.3290  10.84$  1.37$  7.52$
  Q  0.6645  8.76$  3.6$  8.01$
  Q  0.6645  9.86$  2.8$  8.55$
  Q  -1.3290  9.25$  3.35$  8.6$
  Q  0.6645  3.35$  8.78$  5.69$
  Q  0.6645  4.26$  9.95$  5.23$
  Q  -1.3290  3.71$  9.32$  5.14$
  Q  0.6645  15.99$  20.01$  10.2$
  Q  0.6645  16.11$  19.52$  8.67$
  Q  -1.3290  15.95$  19.45$  9.53$
  Q  0.6645  11.1$  1.05$  12.13$
  Q  0.6645  10.31$  0.03$  12.93$
  Q  -1.3290  10.4$  0.66$  12.38$
  Q  0.6645  11.63$  5.33$  13.59$
  Q  0.6645  11.51$  4.05$  12.78$
  Q  -1.3290  11.29$  4.81$  13.02$
  Q  0.6645  20.11$  9.26$  16.88$
  Q  0.6645  19.9$  10.83$  16.75$
  Q  -1.3290  19.72$  9.99$  16.65$
  Q  0.6645  6.27$  8.09$  2.98$
  Q  0.6645  5.05$  8.46$  3.79$
  Q  -1.3290  5.45$  8.11$  3.15$
  Q  0.6645  18.33$  6.7$  17.62$
  Q  0.6645  18.56$  5.67$  18.68$
  Q  -1.3290  18.18$  6.31$  18.33$
  Q  0.6645  8.39$  0.37$  12.7$
  Q  0.6645  7.06$  0.67$  11.99$
  Q  -1.3290  7.56$  0.29$  12.56$
  Q  0.6645  12.97$  17.63$  5.68$
  Q  0.6645  13.23$  16.68$  4.4$
  Q  -1.3290  13.39$  17.09$  5.15$
  Q  0.6645  14.23$  20.04$  13.13$
  Q  0.6645  12.69$  20.08$  12.85$
  Q  -1.3290  13.48$  19.78$  12.8$
  Q  0.6645  15.14$  10.77$  4.71$
  Q  0.6645  14.91$  10.79$  3.15$
  Q  -1.3290  14.99$  11.17$  3.94$
  Q  0.6645  14.95$  7.81$  11.19$
  Q  0.6645  16.12$  8.79$  11.24$
  Q  -1.3290  15.43$  8.42$  11.52$
  Q  0.6645  4.72$  17.54$  11.83$
  Q  0.6645  5.53$  18.7$  12.5$
  Q  -1.3290  4.82$  18.28$  12.3$
  Q  0.6645  10.56$  13.68$  2.02$
  Q  0.6645  11.51$  13.04$  2.96$
  Q  -1.3290  10.97$  13.05$  2.34$
  Q  0.6645  13.15$  12.71$  22.08$
  Q  0.6645  11.88$  12.44$  22.7$
  Q  -1.3290  12.38$  12.52$  22.04$
  Q  0.6645  2.81$  14.52$  13.91$
  Q  0.6645  1.49$  14.87$  14.49$
  Q  -1.3290  1.99$  14.65$  13.87$
  Q  0.6645  4.8$  13.54$  15.33$
  Q  0.6645  5.54$  14.24$  14.37$
  Q  -1.3290  4.85$  14.05$  14.71$
  Q  0.6645  11.01$  16.15$  15.33$
  Q  0.6645  10.65$  15.98$  16.87$
  Q  -1.3290  10.75$  15.73$  16.03$
  Q  0.6645  13.48$  9.77$  18.36$
  Q  0.6645  11.91$  9.78$  18.23$
  Q  -1.3290  12.67$  9.47$  18.46$
  Q  0.6645  13.82$  18.84$  9.81$
  Q  0.6645  12.92$  17.67$  9.6$
  Q  -1.3290  13.11$  18.48$  9.53$
  Q  0.6645  12.39$  2.75$  11.06$
  Q  0.6645  13.17$  2.32$  12.39$
  Q  -1.3290  12.49$  2.41$  11.87$
  Q  0.6645  3.17$  7.95$  18.55$
  Q  0.6645  2.4$  6.82$  17.95$
  Q  -1.3290  3.05$  7.31$  18.06$
  Q  0.6645  0.19$  14.39$  10.66$
  Q  0.6645  1.24$  14.73$  11.88$
  Q  -1.3290  0.98$  14.54$  11.06$
  Q  0.6645  19.08$  7.44$  15.38$
  Q  0.6645  19.34$  5.94$  15.73$
  Q  -1.3290  19.41$  6.76$  15.81$
  Q  0.6645  12.89$  9.46$  20.4$
  Q  0.6645  12.76$  10.57$  21.44$
  Q  -1.3290  12.9$  9.78$  21.17$
  Q  0.6645  20.15$  14.33$  12.78$
  Q  0.6645  20.97$  13$  12.91$
  Q  -1.3290  20.26$  13.49$  12.89$
  Q  0.6645  6.77$  4.28$  4.89$
  Q  0.6645  6.55$  4.02$  6.37$
  Q  -1.3290  7.01$  4.17$  5.69$
  Q  0.6645  2.87$  8.09$  16.19$
  Q  0.6645  1.98$  7.37$  15.06$
  Q  -1.3290  2.49$  7.97$  15.4$
  Q  0.6645  13.87$  8.74$  2.24$
  Q  0.6645  14.96$  9.22$  1.18$
  Q  -1.3290  14.62$  9.08$  1.95$
  Q  0.6645  9.8$  4.83$  10.02$
  Q  0.6645  10.69$  5.65$  10.86$
  Q  -1.3290  10.05$  5.54$  10.36$
  Q  0.6645  17.42$  11.92$  20.63$
  Q  0.6645  16.85$  10.56$  20.14$
  Q  -1.3290  17.46$  11.14$  20.33$
  Q  0.6645  4.27$  12.56$  10.43$
  Q  0.6645  5.76$  12.59$  9.9$
  Q  -1.3290  5.08$  12.33$  10.4$
  Q  0.6645  1.92$  18.39$  9.16$
  Q  0.6645  2.82$  18.3$  7.87$
  Q  -1.3290  2.3$  18.02$  8.5$
  Q  0.6645  17.52$  2.88$  15.08$
  Q  0.6645  17$  1.66$  15.56$
  Q  -1.3290  17.22$  2.15$  14.98$
  Q  0.6645  8.21$  11.1$  18.76$
  Q  0.6645  7.95$  9.66$  18.74$
  Q  -1.3290  7.81$  10.44$  19.01$
  Q  0.6645  10.26$  19.61$  12.65$
  Q  0.6645  10.61$  19.91$  14.2$
  Q  -1.3290  10.65$  20.01$  13.34$
  Q  0.6645  4.01$  3.83$  13.35$
  Q  0.6645  3.44$  2.54$  14.2$
  Q  -1.3290  3.46$  3.37$  13.92$
  Q  0.6645  14.81$  18.2$  11.98$
  Q  0.6645  15.76$  17.73$  10.92$
  Q  -1.3290  15.45$  17.74$  11.68$
  Q  0.6645  6.12$  17.17$  5.91$
  Q  0.6645  7$  18.28$  6.57$
  Q  -1.3290  6.58$  17.53$  6.53$
  Q  0.6645  13.5$  16.42$  14.92$
  Q  0.6645  14.97$  16.03$  14.63$
  Q  -1.3290  14.29$  16.2$  15.13$
  Q  0.6645  6.92$  16.84$  14.91$
  Q  0.6645  5.77$  17.24$  13.88$
  Q  -1.3290  6.23$  17.3$  14.59$
  Q  0.6645  18.39$  15.89$  8.65$
  Q  0.6645  18.46$  17.36$  8.39$
  Q  -1.3290  18.57$  16.57$  8.18$
  Q  0.6645  7.36$  18.77$  13.71$
  Q  0.6645  7.66$  19.94$  12.72$
  Q  -1.3290  7.43$  19.13$  12.96$
  Q  0.6645  3.9$  12.31$  2.69$
  Q  0.6645  4.24$  13.66$  1.91$
  Q  -1.3290  4.4$  12.96$  2.34$
  Q  0.6645  3.77$  13.74$  6.55$
  Q  0.6645  3.39$  14.63$  7.71$
  Q  -1.3290  3.27$  14$  7.17$
  Q  0.6645  4.42$  19.96$  7.85$
  Q  0.6645  3.11$  20.15$  7.04$
  Q  -1.3290  3.79$  19.73$  7.3$
  Q  0.6645  10.87$  18.55$  2.27$
  Q  0.6645  10.67$  18.62$  3.68$
  Q  -1.3290  10.98$  18.28$  3.02$
  Q  0.6645  13.29$  5.61$  3.46$
  Q  0.6645  12.63$  6.88$  4.1$
  Q  -1.3290  13.11$  6.17$  4.07$
  Q  0.6645  5.24$  6.12$  17.5$
  Q  0.6645  6.36$  5.37$  16.88$
  Q  -1.3290  6.01$  5.92$  17.37$
  Q  0.6645  6.96$  20.59$  16.55$
  Q  0.6645  6.67$  19.34$  17.39$
  Q  -1.3290  7.06$  20.08$  17.24$
  Q  0.6645  3.39$  11.44$  16.39$
  Q  0.6645  4.76$  11.57$  17.18$
  Q  -1.3290  4.12$  11.79$  16.62$
  Q  0.6645  1.69$  18.62$  12.32$
  Q  0.6645  3.08$  18.89$  11.84$
  Q  -1.3290  2.23$  18.91$  11.75$
  Q  0.6645  4.63$  16.9$  3.68$
  Q  0.6645  5.34$  15.77$  4.43$
  Q  -1.3290  5.24$  16.56$  4.14$
  Q  0.6645  4.29$  16.21$  15.62$
  Q  0.6645  3.56$  15.52$  16.71$
  Q  -1.3290  3.72$  16.16$  16.19$
  Q  0.6645  11.46$  8.96$  2.49$
  Q  0.6645  11.63$  7.5$  2.17$
  Q  -1.3290  11.91$  8.26$  2.38$
  Q  0.6645  17.1$  9.78$  9.37$
  Q  0.6645  18.44$  9.94$  10.16$
  Q  -1.3290  17.69$  9.55$  9.97$
  Q  0.6645  20.73$  14.6$  9.15$
  Q  0.6645  19.87$  14.1$  10.41$
  Q  -1.3290  20.46$  14.04$  9.78$
  Q  0.6645  8.53$  13.99$  1.61$
  Q  0.6645  8.92$  15.51$  1.75$
  Q  -1.3290  8.89$  14.74$  1.38$
  Q  0.6645  5.64$  4.73$  11.74$
  Q  0.6645  6.24$  3.47$  12.16$
  Q  -1.3290  5.61$  4.02$  12.15$
  Q  0.6645  5.39$  17.56$  18.25$
  Q  0.6645  4.22$  17.95$  17.28$
  Q  -1.3290  4.83$  18.08$  17.85$
  Q  0.6645  15.22$  5.99$  20.63$
  Q  0.6645  16.69$  6.24$  19.98$
  Q  -1.3290  16.01$  6.34$  20.52$
  Q  0.6645  16.18$  6.22$  15.31$
  Q  0.6645  16.35$  6.51$  16.84$
  Q  -1.3290  16.15$  6.04$  16.15$
  Q  0.6645  4.63$  21.1$  9.49$
  Q  0.6645  6.1$  21.07$  8.89$
  Q  -1.3290  5.36$  20.76$  9.23$
  Q  0.6645  17.26$  2.81$  8.83$
  Q  0.6645  18.09$  2.31$  10.07$
  Q  -1.3290  17.65$  2.87$  9.56$
  Q  0.6645  15.67$  5.58$  8.93$
  Q  0.6645  14.85$  4.57$  8.09$
  Q  -1.3290  15.27$  5.32$  8.23$
  Q  0.6645  12.94$  7.4$  18.92$
  Q  0.6645  12.93$  5.89$  18.68$
  Q  -1.3290  12.81$  6.6$  19.12$
  Q  0.6645  5.26$  14.97$  19.43$
  Q  0.6645  4.39$  14.59$  20.66$
  Q  -1.3290  4.84$  14.44$  19.96$
  Q  0.6645  14$  1.51$  18.66$
  Q  0.6645  14.6$  2.91$  19.03$
  Q  -1.3290  14.52$  2.18$  18.6$
  Q  0.6645  19.79$  8.82$  13.41$
  Q  0.6645  19.07$  7.63$  12.87$
  Q  -1.3290  19.19$  8.23$  13.41$
  Q  0.6645  12.02$  9.27$  4.68$
  Q  0.6645  13.22$  9.13$  5.7$
  Q  -1.3290  12.42$  9.01$  5.4$
  Q  0.6645  6.98$  13.54$  13.28$
  Q  0.6645  6.54$  14.84$  12.45$
  Q  -1.3290  6.86$  14.37$  13.09$
  Q  0.6645  18.07$  14.92$  4.61$
  Q  0.6645  18.56$  15.59$  5.99$
  Q  -1.3290  18.34$  15.53$  5.12$
  Q  0.6645  18.21$  11.86$  18.07$
  Q  0.6645  18.96$  12.6$  16.82$
  Q  -1.3290  18.41$  12.5$  17.52$
  Q  0.6645  18.11$  8.48$  4.27$
  Q  0.6645  17.58$  7.43$  5.32$
  Q  -1.3290  18.01$  8.12$  5.04$
  Q  0.6645  16.95$  12.77$  16.24$
  Q  0.6645  17.12$  12.02$  14.84$
  Q  -1.3290  16.78$  12.58$  15.4$
  Q  0.6645  3.08$  5.62$  9.95$
  Q  0.6645  2.72$  4.92$  8.57$
  Q  -1.3290  2.91$  4.96$  9.42$
  Q  0.6645  10.51$  11$  17.13$
  Q  0.6645  10.53$  9.62$  16.47$
  Q  -1.3290  10.34$  10.18$  17.09$
  Q  0.6645  8.78$  7.57$  18.61$
  Q  0.6645  9.26$  8.74$  17.7$
  Q  -1.3290  8.72$  8.15$  17.98$
  Q  0.6645  8.89$  2.91$  5.16$
  Q  0.6645  10.38$  3.15$  5.38$
  Q  -1.3290  9.69$  2.66$  5.27$
  Q  0.6645  12.79$  15.94$  1.9$
  Q  0.6645  11.91$  16.55$  2.84$
  Q  -1.3290  12.49$  15.94$  2.64$
  Q  0.6645  1.31$  12.63$  13.58$
  Q  0.6645  0.78$  11.65$  14.62$
  Q  -1.3290  0.83$  12.01$  13.87$
  Q  0.6645  8.14$  3.76$  14.85$
  Q  0.6645  8.33$  5.01$  15.77$
  Q  -1.3290  7.93$  4.33$  15.47$
  Q  0.6645  17.12$  5.91$  10.95$
  Q  0.6645  16.81$  4.58$  10.33$
  Q  -1.3290  16.61$  5.29$  10.71$
  Q  0.6645  13.48$  2.27$  15.2$
  Q  0.6645  13.97$  2.32$  16.63$
  Q  -1.3290  13.39$  2.34$  16.04$
  Q  0.6645  7.59$  21.27$  7.19$
  Q  0.6645  6.86$  22.49$  7.47$
  Q  -1.3290  7.27$  21.84$  7.67$
  Q  0.6645  7.58$  18.21$  2.21$
  Q  0.6645  7.5$  19.77$  2.02$
  Q  -1.3290  7.64$  18.95$  1.77$
  Q  0.6645  18.68$  18.82$  10.76$
  Q  0.6645  20.07$  18.73$  10.01$
  Q  -1.3290  19.29$  18.47$  10.26$
  Q  0.6645  7.05$  5.76$  19.06$
  Q  0.6645  8.22$  4.84$  19.37$
  Q  -1.3290  7.72$  5.51$  19.48$
  Q  0.6645  7.45$  14.63$  15.69$
  Q  0.6645  8.67$  15.74$  15.74$
  Q  -1.3290  7.87$  15.4$  15.88$
  Q  0.6645  10.25$  15.77$  19.6$
  Q  0.6645  10.39$  17.21$  19.08$
  Q  -1.3290  10.55$  16.37$  19.1$
  Q  0.6645  18.05$  11.58$  5.75$
  Q  0.6645  18.52$  10.18$  5.61$
  Q  -1.3290  18.5$  10.9$  5.98$
*
