! NoMOPrint PrintBasis #MINIPRINT SMALLPRINT LARGEPRINT
! ALLPOP XYZFILE
#! BP86 3-21G   TightSCF
! ENGRAD
! B3LYP NormalPNO PModel #DecontractAux
#! VerySlowConv 
 %maxcore 5000
 %scf  maxiter   500  end 

%pal
    nprocs 32
end

%basis
    NewGTO O    # New basis for oxygen
        "aug-cc-pVTZ"
    end
    NewGTO C    # New basis for carbon
        "aug-cc-pVTZ"
    end
    NewGTO H    # New basis for hydrogen
        "cc-pVTZ"
    end
end

* xyz 0   1
  C  12.05  12.3  11.51  #1
  H  11.48  12.35  12.37  #2
  H  11.75  13.11  10.88  #3
  C  11.93  10.93  10.91  #4
  H  12.36  10.92  9.92  #5
  H  12.51  10.21  11.44  #6
  C  10.45  10.43  11.06  #7
  H  9.8  11.31  10.85  #8
  H  10.46  10.01  12.06  #9
  C  10.11  9.42  10.11  #10
  H  10.79  8.58  10.08  #11
  H  10.1  9.96  9.14  #12
  O  8.84  8.85  10.45  #13
  H  8.15  9.52  10.71  #14
  O  13.37  12.52  11.89  #15
  H  13.54  11.91  12.55  #16
  O  8.78  11.3  14.58  #17
  H  8.9  11.87  13.8  #18
  H  8.67  10.44  14.08  #19
  O  7.3  7.01  12.13  #20
  H  6.34  6.88  12.35  #21
  H  7.43  6.62  11.26  #22
  O  10.33  8.32  7.13  #23
  H  9.73  7.59  7.38  #24
  H  11.13  7.9  7.48  #25
  O  9.49  14.78  10.35  #26
  H  8.99  15.36  9.77  #27
  H  9.93  14.28  9.66  #28
  O  10.8  15.58  12.77  #29
  H  10.42  15.1  11.99  #30
  H  11.31  16.17  12.19  #31
  O  5.81  10.61  15.91  #32
  H  6.67  10.69  15.48  #33
  H  5.66  9.73  16.18  #34
  O  8.94  16.65  7.86  #35
  H  8.63  16.8  6.96  #36
  H  9.81  17.09  7.87  #37
  O  7.78  13.75  7.05  #38
  H  8.03  13.6  6.13  #39
  H  8.63  13.84  7.48  #40
  O  14.99  11.21  9.31  #41
  H  14.59  10.99  10.16  #42
  H  14.89  12.17  9.12  #43
  O  13.15  10.91  6.29  #44
  H  12.22  10.8  6.22  #45
  H  13.42  10.69  7.18  #46
  O  4.46  6.85  11.87  #47
  H  3.54  6.7  11.49  #48
  H  4.17  6.88  12.79  #49
  O  8.34  4.77  13.74  #50
  H  8.4  3.9  13.35  #51
  H  8.12  5.24  12.92  #52
  O  6.97  11.04  10.82  #53
  H  7.18  11.09  9.9  #54
  H  6.2  10.4  10.89  #55
  O  11  7.06  12.53  #56
  H  10.65  7.87  12.94  #57
  H  10.19  6.76  12.11  #58
  O  8.33  16.85  14.65  #59
  H  9.06  16.87  14.09  #60
  H  8.74  16.75  15.55  #61
  O  14.49  14.94  12.01  #62
  H  14.1  14.08  12.13  #63
  H  15.41  14.67  11.96  #64
  O  10.35  13.41  8.14  #65
  H  11.12  14.02  8.18  #66
  H  10.5  12.61  7.57  #67
  O  14.99  12.86  14.44  #68
  H  14.93  11.89  14.26  #69
  H  14.16  13.05  14.92  #70
  O  12.72  17.03  11.14  #71
  H  13.51  16.44  11.2  #72
  H  12.97  17.91  11.39  #73
  O  11.14  10.63  15.85  #74
  H  11.82  11.25  16.12  #75
  H  10.46  11.23  15.54  #76
  O  8.11  6.7  8.52  #77
  H  7.2  7.01  8.25  #78
  H  8.36  7.4  9.16  #79
  O  8.28  4.65  10.55  #80
  H  7.35  4.46  10.72  #81
  H  8.36  4.88  9.65  #82
  O  15.18  14.38  9.16  #83
  H  15.29  15.33  9.05  #84
  H  15.03  14.29  10.16  #85
  O  13.22  7.05  7.65  #86
  H  13.42  7.15  6.72  #87
  H  12.89  6.16  7.68  #88
  O  10.28  14.32  15.16  #89
  H  9.46  14.35  15.71  #90
  H  10.3  14.77  14.3  #91
  O  8.68  5.8  5.53  #92
  H  8.15  5.41  6.28  #93
  H  8.23  6.66  5.5  #94
  O  12.09  9.45  13.66  #95
  H  12.3  8.6  14.09  #96
  H  11.67  9.93  14.42  #97
  O  8.67  8.71  13.73  #98
  H  8.31  8.3  14.48  #99
  H  8.34  8.13  13.02  #100
  O  10.41  10.77  5.99  #101
  H  9.94  9.92  6.17  #102
  H  9.86  11.35  5.44  #103
  O  8.31  12.81  12.3  #104
  H  8.47  13.47  11.66  #105
  H  7.73  12.18  11.89  #106
  O  14.68  10.38  13.76  #107
  H  15.31  9.9  13.24  #108
  H  13.8  9.96  13.6  #109
  Q  0.6645  6.5$  21.31$  9.52$
  Q  0.6645  6.12$  19.81$  9.68$
  Q  -1.3290  5.95$  20.63$  9.55$
  Q  0.6645  10$  20.15$  15.23$
  Q  0.6645  8.67$  20.17$  15.83$
  Q  -1.3290  9.43$  19.93$  15.79$
  Q  0.6645  11.97$  13.31$  15.74$
  Q  0.6645  13.02$  13.41$  16.83$
  Q  -1.3290  12.64$  13.04$  16.19$
  Q  0.6645  21.32$  12.35$  8.91$
  Q  0.6645  22.29$  12.16$  7.76$
  Q  -1.3290  21.71$  11.94$  8.31$
  Q  0.6645  4.92$  15.52$  5.88$
  Q  0.6645  6$  16.16$  4.95$
  Q  -1.3290  5.26$  15.78$  5.13$
  Q  0.6645  6.53$  4.48$  14.44$
  Q  0.6645  5.66$  3.98$  15.5$
  Q  -1.3290  5.79$  4.36$  14.8$
  Q  0.6645  9.74$  13.5$  21.16$
  Q  0.6645  11.19$  12.95$  21.6$
  Q  -1.3290  10.46$  12.98$  21.14$
  Q  0.6645  13.97$  7.94$  4.33$
  Q  0.6645  13.98$  6.35$  4.73$
  Q  -1.3290  14.12$  7.22$  4.8$
  Q  0.6645  8.19$  0.19$  8.48$
  Q  0.6645  7.67$  1.55$  9.24$
  Q  -1.3290  8.05$  0.78$  9.13$
  Q  0.6645  9.3$  13.36$  4.04$
  Q  0.6645  8.02$  12.51$  3.8$
  Q  -1.3290  8.64$  12.86$  4.27$
  Q  0.6645  13.64$  16.6$  15.05$
  Q  0.6645  14.56$  15.8$  14.23$
  Q  -1.3290  14.33$  16.13$  14.93$
  Q  0.6645  5.44$  16.64$  12.23$
  Q  0.6645  4.52$  17.62$  11.47$
  Q  -1.3290  5.24$  17.37$  11.86$
  Q  0.6645  4.49$  12.69$  4.39$
  Q  0.6645  5.62$  13.58$  4.75$
  Q  -1.3290  5.11$  12.94$  4.85$
  Q  0.6645  6.13$  18.3$  15.67$
  Q  0.6645  5.42$  17.08$  16.17$
  Q  -1.3290  5.73$  17.82$  16.25$
  Q  0.6645  6.89$  10.7$  7.27$
  Q  0.6645  7.61$  11.95$  7.52$
  Q  -1.3290  7.24$  11.29$  7.76$
  Q  0.6645  8.58$  10.71$  0.81$
  Q  0.6645  9.6$  11.39$  -0.12$
  Q  -1.3290  9.17$  10.74$  0.22$
  Q  0.6645  20.06$  15.4$  10.48$
  Q  0.6645  19.55$  16.29$  9.47$
  Q  -1.3290  19.76$  16.11$  10.22$
  Q  0.6645  14.06$  12.47$  5.51$
  Q  0.6645  13.96$  13.98$  5.08$
  Q  -1.3290  14.24$  13.17$  5.06$
  Q  0.6645  19.46$  14.53$  6.91$
  Q  0.6645  17.97$  14.77$  6.83$
  Q  -1.3290  18.74$  14.88$  7.14$
  Q  0.6645  13.46$  16.36$  6.01$
  Q  0.6645  12.59$  15.2$  6.69$
  Q  -1.3290  12.84$  15.72$  6.07$
  Q  0.6645  14.67$  19.2$  8.16$
  Q  0.6645  13.06$  19.03$  8.18$
  Q  -1.3290  13.85$  19.31$  8.43$
  Q  0.6645  10.56$  3.37$  6.57$
  Q  0.6645  10.15$  2.57$  7.76$
  Q  -1.3290  10.07$  3.22$  7.23$
  Q  0.6645  16.47$  18.54$  12.53$
  Q  0.6645  17.27$  17.21$  12.46$
  Q  -1.3290  16.95$  17.96$  12.17$
  Q  0.6645  17.32$  8.15$  13.1$
  Q  0.6645  16.98$  6.96$  13.93$
  Q  -1.3290  17.33$  7.73$  13.81$
  Q  0.6645  11.93$  21.7$  14.88$
  Q  0.6645  12.36$  20.31$  14.23$
  Q  -1.3290  11.91$  21.04$  14.35$
  Q  0.6645  7.03$  14.18$  13.2$
  Q  0.6645  7.12$  15.4$  14.09$
  Q  -1.3290  6.75$  14.86$  13.56$
  Q  0.6645  11.99$  2.79$  15.7$
  Q  0.6645  11.3$  4.21$  15.64$
  Q  -1.3290  11.94$  3.63$  15.49$
  Q  0.6645  11.59$  7.65$  0.7$
  Q  0.6645  12.99$  8.09$  0.49$
  Q  -1.3290  12.17$  8.14$  0.4$
  Q  0.6645  2.35$  1.81$  10.09$
  Q  0.6645  2.62$  2.66$  8.82$
  Q  -1.3290  2.41$  1.95$  9.26$
  Q  0.6645  15.75$  5.47$  14.75$
  Q  0.6645  15.3$  6.08$  13.43$
  Q  -1.3290  15.79$  5.65$  13.94$
  Q  0.6645  7.87$  7.81$  16.85$
  Q  0.6645  6.71$  7.01$  16.2$
  Q  -1.3290  7.24$  7.67$  16.3$
  Q  0.6645  16.14$  12.76$  17.23$
  Q  0.6645  16.21$  12.23$  18.57$
  Q  -1.3290  16.34$  12.18$  17.78$
  Q  0.6645  21.66$  6.82$  11.93$
  Q  0.6645  22$  6.88$  10.48$
  Q  -1.3290  21.47$  6.73$  11.11$
  Q  0.6645  3.11$  16.21$  13.51$
  Q  0.6645  4.33$  15.36$  14.09$
  Q  -1.3290  3.63$  15.53$  13.58$
  Q  0.6645  15.69$  6.39$  9.47$
  Q  0.6645  14.49$  7.16$  9.06$
  Q  -1.3290  15.1$  6.99$  9.56$
  Q  0.6645  6.4$  16.07$  8.6$
  Q  0.6645  6.55$  14.63$  7.98$
  Q  -1.3290  6.13$  15.31$  8.36$
  Q  0.6645  2.67$  12.29$  15.67$
  Q  0.6645  1.48$  12.88$  16.54$
  Q  -1.3290  2.29$  12.81$  16.24$
  Q  0.6645  0.1$  10.69$  11.47$
  Q  0.6645  1.26$  11.71$  11.17$
  Q  -1.3290  0.49$  11.46$  11.42$
  Q  0.6645  6.78$  10.48$  2.31$
  Q  0.6645  6.49$  11.85$  1.88$
  Q  -1.3290  6.95$  11.29$  2.27$
  Q  0.6645  16.45$  12.17$  3.28$
  Q  0.6645  15.42$  13.21$  3.17$
  Q  -1.3290  15.97$  12.7$  2.85$
  Q  0.6645  10.17$  8.32$  18.04$
  Q  0.6645  9.88$  9.13$  16.78$
  Q  -1.3290  9.91$  8.43$  17.25$
  Q  0.6645  2.66$  16.58$  10.36$
  Q  0.6645  4.05$  15.9$  10.37$
  Q  -1.3290  3.49$  16.48$  10.14$
  Q  0.6645  12.27$  2.06$  5.21$
  Q  0.6645  12.54$  3.6$  5.28$
  Q  -1.3290  12.08$  2.88$  5.24$
  Q  0.6645  3.51$  4.05$  13.78$
  Q  0.6645  2.3$  3.95$  12.75$
  Q  -1.3290  2.74$  4.24$  13.43$
  Q  0.6645  13.66$  7.47$  17.88$
  Q  0.6645  13.69$  6.03$  17.31$
  Q  -1.3290  13.63$  6.63$  17.92$
  Q  0.6645  9.62$  5.56$  15.27$
  Q  0.6645  9.97$  6.32$  16.5$
  Q  -1.3290  10.03$  5.71$  15.96$
  Q  0.6645  3.89$  7.3$  18.15$
  Q  0.6645  2.98$  8.34$  17.5$
  Q  -1.3290  3.35$  7.59$  17.56$
  Q  0.6645  21.59$  7.66$  16.17$
  Q  0.6645  20.84$  8.81$  15.5$
  Q  -1.3290  21.53$  8.38$  15.71$
  Q  0.6645  12.94$  12.26$  1.49$
  Q  0.6645  12.97$  13.81$  1.4$
  Q  -1.3290  12.62$  13.05$  1.48$
  Q  0.6645  7.09$  4.76$  18.06$
  Q  0.6645  6.5$  5.84$  18.85$
  Q  -1.3290  7.14$  5.41$  18.55$
  Q  0.6645  17.93$  18.23$  6.37$
  Q  0.6645  18.64$  17$  6.74$
  Q  -1.3290  18.6$  17.75$  6.5$
  Q  0.6645  10.09$  3.28$  3.94$
  Q  0.6645  9.12$  4.5$  4.27$
  Q  -1.3290  9.33$  3.75$  3.91$
  Q  0.6645  14.45$  18.82$  13.95$
  Q  0.6645  15.46$  20$  14.3$
  Q  -1.3290  15.1$  19.37$  13.83$
  Q  0.6645  12.24$  1.19$  8.43$
  Q  0.6645  13.34$  0.14$  8.49$
  Q  -1.3290  12.93$  0.79$  8.14$
  Q  0.6645  0.49$  4.95$  8.52$
  Q  0.6645  1.58$  4.25$  7.89$
  Q  -1.3290  1.2$  4.59$  8.53$
  Q  0.6645  11.71$  8.16$  3.67$
  Q  0.6645  10.59$  7.5$  4.47$
  Q  -1.3290  11.05$  7.68$  3.78$
  Q  0.6645  3.96$  9.1$  9.05$
  Q  0.6645  2.89$  9.21$  7.84$
  Q  -1.3290  3.3$  8.83$  8.54$
  Q  0.6645  7.34$  2.42$  16.57$
  Q  0.6645  5.86$  2.57$  17.05$
  Q  -1.3290  6.66$  2.84$  16.86$
  Q  0.6645  18.7$  11.58$  10.24$
  Q  0.6645  18.06$  12.51$  11.27$
  Q  -1.3290  18.26$  11.76$  10.96$
  Q  0.6645  16.82$  8.5$  18.72$
  Q  0.6645  15.88$  8.1$  19.94$
  Q  -1.3290  16.23$  8.63$  19.36$
  Q  0.6645  14.32$  19.78$  12.1$
  Q  0.6645  13.76$  20.09$  10.7$
  Q  -1.3290  13.73$  19.88$  11.52$
  Q  0.6645  3.67$  1.86$  12.63$
  Q  0.6645  4.82$  1.99$  13.55$
  Q  -1.3290  4.35$  2.21$  12.92$
  Q  0.6645  6.53$  14.52$  18.87$
  Q  0.6645  5.2$  14.02$  19.4$
  Q  -1.3290  5.95$  14.48$  19.46$
  Q  0.6645  21.39$  14.16$  14.24$
  Q  0.6645  20.15$  13.21$  14.5$
  Q  -1.3290  20.59$  13.96$  14.39$
  Q  0.6645  16.57$  11.34$  21.36$
  Q  0.6645  16.76$  10.11$  20.41$
  Q  -1.3290  16.89$  10.6$  21.11$
  Q  0.6645  14.55$  15.41$  16.88$
  Q  0.6645  13.95$  15.25$  18.27$
  Q  -1.3290  14.36$  14.98$  17.55$
  Q  0.6645  15.66$  16.44$  5.87$
  Q  0.6645  15.36$  17.78$  6.4$
  Q  -1.3290  15.2$  17.13$  5.96$
  Q  0.6645  10.36$  20.66$  5.5$
  Q  0.6645  11.57$  21.12$  6.48$
  Q  -1.3290  10.93$  20.61$  6.18$
  Q  0.6645  7.41$  18.25$  9.66$
  Q  0.6645  5.97$  17.76$  10.18$
  Q  -1.3290  6.58$  18$  9.59$
  Q  0.6645  19.33$  8.06$  4.26$
  Q  0.6645  19.05$  9.59$  4.18$
  Q  -1.3290  19.51$  8.89$  4.24$
  Q  0.6645  15.61$  13.84$  20.15$
  Q  0.6645  14.65$  12.66$  20.3$
  Q  -1.3290  15.38$  13.02$  20.27$
  Q  0.6645  7.25$  17.56$  5.54$
  Q  0.6645  8.64$  17.39$  4.99$
  Q  -1.3290  7.91$  17.12$  5.26$
  Q  0.6645  9.71$  8.65$  0.81$
  Q  0.6645  9.93$  7.96$  2.01$
  Q  -1.3290  9.6$  8.01$  1.27$
  Q  0.6645  4.26$  6.02$  14.77$
  Q  0.6645  3.65$  7.09$  15.53$
  Q  -1.3290  3.89$  6.75$  14.84$
  Q  0.6645  14.96$  11.04$  1.65$
  Q  0.6645  13.99$  10.64$  0.45$
  Q  -1.3290  14.23$  10.84$  1.26$
  Q  0.6645  16.83$  7.97$  15.82$
  Q  0.6645  15.93$  6.97$  16.69$
  Q  -1.3290  16.58$  7.5$  16.53$
  Q  0.6645  18.08$  18.65$  15.39$
  Q  0.6645  18.61$  20.22$  15.56$
  Q  -1.3290  18.54$  19.33$  15.7$
  Q  0.6645  4.65$  8.7$  11.3$
  Q  0.6645  4.12$  10.15$  11.13$
  Q  -1.3290  4.64$  9.5$  10.96$
  Q  0.6645  15.28$  4.72$  2.03$
  Q  0.6645  15.35$  5.02$  3.48$
  Q  -1.3290  15.2$  5.21$  2.69$
  Q  0.6645  4.56$  6.06$  3.01$
  Q  0.6645  5.27$  7.35$  2.45$
  Q  -1.3290  4.61$  6.83$  2.7$
  Q  0.6645  19.6$  19.25$  12.17$
  Q  0.6645  19.57$  17.73$  11.88$
  Q  -1.3290  19.93$  18.47$  12.09$
  Q  0.6645  17.79$  16.26$  17.76$
  Q  0.6645  18.44$  16.98$  18.96$
  Q  -1.3290  17.95$  16.4$  18.58$
  Q  0.6645  16.69$  10.04$  11.13$
  Q  0.6645  16.16$  8.66$  10.94$
  Q  -1.3290  16.48$  9.29$  11.41$
  Q  0.6645  7.4$  11.32$  19.51$
  Q  0.6645  6.09$  11.44$  18.65$
  Q  -1.3290  6.56$  11.28$  19.36$
  Q  0.6645  5.01$  14.38$  16.26$
  Q  0.6645  3.81$  15.2$  15.97$
  Q  -1.3290  4.61$  15.06$  15.96$
  Q  0.6645  14.25$  10.03$  19.98$
  Q  0.6645  12.73$  10.37$  20.07$
  Q  -1.3290  13.55$  10.47$  20.2$
  Q  0.6645  10.78$  15.85$  15.96$
  Q  0.6645  10.7$  16.43$  17.42$
  Q  -1.3290  10.83$  16.44$  16.59$
  Q  0.6645  17.9$  16.14$  15.4$
  Q  0.6645  16.5$  16.48$  15.94$
  Q  -1.3290  17.34$  16.52$  15.91$
  Q  0.6645  17.28$  17.71$  3.56$
  Q  0.6645  15.9$  17.71$  4.37$
  Q  -1.3290  16.54$  18.04$  3.92$
  Q  0.6645  0.8$  9.82$  14.81$
  Q  0.6645  0.68$  11.04$  13.82$
  Q  -1.3290  1.07$  10.52$  14.38$
  Q  0.6645  0.47$  7.15$  14.39$
  Q  0.6645  1.12$  5.85$  13.89$
  Q  -1.3290  0.56$  6.48$  13.86$
  Q  0.6645  14.92$  3.96$  5.5$
  Q  0.6645  14.04$  4.64$  6.53$
  Q  -1.3290  14.26$  4.43$  5.76$
  Q  0.6645  10.83$  2.16$  10.04$
  Q  0.6645  9.88$  1.22$  9.27$
  Q  -1.3290  10.6$  1.6$  9.41$
  Q  0.6645  18.73$  8.6$  14.9$
  Q  0.6645  18.92$  8.98$  16.47$
  Q  -1.3290  19.06$  9.02$  15.6$
  Q  0.6645  13.81$  4.65$  15.66$
  Q  0.6645  14.96$  3.98$  16.45$
  Q  -1.3290  14.55$  4.63$  16.11$
  Q  0.6645  5.29$  11.97$  8.6$
  Q  0.6645  4.63$  13.23$  8.97$
  Q  -1.3290  4.67$  12.42$  8.89$
  Q  0.6645  2.67$  8.22$  3.66$
  Q  0.6645  1.23$  8.05$  4.1$
  Q  -1.3290  1.99$  8.39$  4.11$
  Q  0.6645  9.64$  2.12$  12.88$
  Q  0.6645  8.76$  0.97$  13.13$
  Q  -1.3290  8.96$  1.76$  13.2$
  Q  0.6645  8.78$  19.72$  9.2$
  Q  0.6645  9.2$  19.76$  10.71$
  Q  -1.3290  9.08$  19.42$  9.96$
  Q  0.6645  12.52$  16.15$  19.68$
  Q  0.6645  13.4$  15.47$  20.77$
  Q  -1.3290  13.24$  15.77$  20$
  Q  0.6645  2.49$  10.96$  6.1$
  Q  0.6645  2.24$  9.41$  5.72$
  Q  -1.3290  2.61$  10.1$  6.12$
  Q  0.6645  19.07$  6.52$  13.39$
  Q  0.6645  20.49$  5.86$  13.84$
  Q  -1.3290  19.64$  5.9$  13.63$
  Q  0.6645  18.65$  13.93$  16.69$
  Q  0.6645  18.87$  14.34$  18.18$
  Q  -1.3290  19.05$  13.99$  17.43$
  Q  0.6645  6.61$  8.37$  3.61$
  Q  0.6645  7.53$  8.25$  2.47$
  Q  -1.3290  6.8$  8.41$  2.81$
  Q  0.6645  17$  4.67$  8.09$
  Q  0.6645  15.61$  4.31$  8.6$
  Q  -1.3290  16.16$  4.75$  8.18$
  Q  0.6645  16.67$  9.58$  3.78$
  Q  0.6645  16.81$  10.14$  5.19$
  Q  -1.3290  16.92$  10.13$  4.35$
  Q  0.6645  3.01$  11.01$  17.32$
  Q  0.6645  2.71$  10.39$  18.67$
  Q  -1.3290  2.78$  10.4$  17.83$
  Q  0.6645  11.41$  14.52$  4.1$
  Q  0.6645  11.4$  13.8$  2.82$
  Q  -1.3290  11.05$  14.23$  3.44$
  Q  0.6645  16.36$  6.49$  6.92$
  Q  0.6645  15.78$  7.41$  5.79$
  Q  -1.3290  16.38$  7.1$  6.33$
  Q  0.6645  11.48$  8.89$  20.39$
  Q  0.6645  10.32$  9.69$  20.25$
  Q  -1.3290  10.89$  9.19$  19.94$
  Q  0.6645  4.14$  4$  3.92$
  Q  0.6645  5.36$  4.14$  3.03$
  Q  -1.3290  4.83$  4.4$  3.61$
  Q  0.6645  10.91$  17.87$  19.37$
  Q  0.6645  10.26$  16.78$  20.28$
  Q  -1.3290  10.55$  17.11$  19.57$
  Q  0.6645  12.14$  6.72$  15.81$
  Q  0.6645  13.27$  7.85$  15.83$
  Q  -1.3290  12.76$  7.21$  15.52$
  Q  0.6645  16.9$  19.2$  7.82$
  Q  0.6645  16.44$  19.97$  6.54$
  Q  -1.3290  16.43$  19.33$  7.09$
  Q  0.6645  13.68$  4.74$  12.76$
  Q  0.6645  12.85$  3.81$  13.63$
  Q  -1.3290  13.25$  4.04$  12.94$
  Q  0.6645  11.9$  16.95$  4.91$
  Q  0.6645  11.81$  18.18$  4.08$
  Q  -1.3290  11.5$  17.48$  4.42$
  Q  0.6645  5.56$  3.67$  11.86$
  Q  0.6645  4.88$  4.89$  11.4$
  Q  -1.3290  5.41$  4.24$  11.31$
  Q  0.6645  15.07$  9.36$  17.2$
  Q  0.6645  14.39$  10.03$  16.16$
  Q  -1.3290  14.46$  9.42$  16.68$
  Q  0.6645  9.88$  3.78$  11.51$
  Q  0.6645  11.27$  3.64$  12.17$
  Q  -1.3290  10.6$  3.4$  11.74$
  Q  0.6645  7.98$  2.62$  5.03$
  Q  0.6645  8.54$  2.61$  6.38$
  Q  -1.3290  8.11$  2.28$  5.75$
  Q  0.6645  17.8$  18.91$  10.07$
  Q  0.6645  17.5$  20.38$  10$
  Q  -1.3290  17.66$  19.62$  9.67$
  Q  0.6645  10.08$  11.93$  19.44$
  Q  0.6645  10.44$  11.37$  17.99$
  Q  -1.3290  9.99$  11.77$  18.6$
  Q  0.6645  4.55$  11.17$  14.81$
  Q  0.6645  3.09$  10.71$  14.34$
  Q  -1.3290  3.81$  11.19$  14.37$
  Q  0.6645  14.04$  6.9$  11.28$
  Q  0.6645  12.75$  6.81$  12.21$
  Q  -1.3290  13.59$  6.88$  12.02$
  Q  0.6645  17.96$  15.03$  13.69$
  Q  0.6645  19.37$  15.48$  13.34$
  Q  -1.3290  18.56$  15.57$  13.45$
  Q  0.6645  17.19$  3.02$  12.33$
  Q  0.6645  15.99$  3.72$  12.94$
  Q  -1.3290  16.39$  3.24$  12.37$
  Q  0.6645  2.85$  3.56$  6$
  Q  0.6645  3.97$  3.8$  6.86$
  Q  -1.3290  3.21$  3.52$  6.72$
  Q  0.6645  2.04$  6.11$  9.73$
  Q  0.6645  2.48$  7.57$  9.79$
  Q  -1.3290  2.23$  6.84$  10.13$
  Q  0.6645  12.15$  15.85$  9.09$
  Q  0.6645  13.24$  14.86$  8.9$
  Q  -1.3290  12.49$  15.18$  8.79$
  Q  0.6645  15.93$  10$  7.99$
  Q  0.6645  16.54$  8.96$  7.09$
  Q  -1.3290  16.5$  9.7$  7.44$
  Q  0.6645  8.3$  20.36$  12.9$
  Q  0.6645  9.74$  20.74$  12.78$
  Q  -1.3290  8.96$  20.76$  12.58$
  Q  0.6645  11.87$  17.88$  15.7$
  Q  0.6645  12.89$  18.95$  16.04$
  Q  -1.3290  12.51$  18.4$  15.52$
  Q  0.6645  5.43$  11.15$  5.48$
  Q  0.6645  4.63$  9.98$  6.03$
  Q  -1.3290  5.34$  10.37$  5.83$
  Q  0.6645  8.18$  15.12$  17.57$
  Q  0.6645  8.98$  13.85$  18.09$
  Q  -1.3290  8.61$  14.37$  17.51$
  Q  0.6645  13.52$  5.7$  2.31$
  Q  0.6645  12.18$  6.33$  2.75$
  Q  -1.3290  12.67$  5.81$  2.33$
  Q  0.6645  2.72$  15.05$  7.97$
  Q  0.6645  4.13$  15.42$  7.86$
  Q  -1.3290  3.42$  15.11$  7.57$
  Q  0.6645  7.36$  16.48$  2.33$
  Q  0.6645  7.95$  15.68$  3.39$
  Q  -1.3290  7.6$  15.78$  2.63$
  Q  0.6645  9.08$  1.84$  15.21$
  Q  0.6645  8.6$  0.78$  16.24$
  Q  -1.3290  8.99$  1.48$  16.01$
  Q  0.6645  6.72$  8.81$  5.55$
  Q  0.6645  6.52$  7.38$  5.97$
  Q  -1.3290  6.74$  7.97$  5.45$
  Q  0.6645  8.71$  17.21$  18.32$
  Q  0.6645  7.47$  17.39$  17.23$
  Q  -1.3290  7.97$  17.08$  17.87$
  Q  0.6645  18.38$  6.98$  10.04$
  Q  0.6645  18.97$  8.14$  9$
  Q  -1.3290  18.71$  7.36$  9.32$
  Q  0.6645  7.03$  13.17$  17.22$
  Q  0.6645  5.83$  12.43$  16.81$
  Q  -1.3290  6.25$  13.03$  17.19$
  Q  0.6645  18.23$  10.87$  17.88$
  Q  0.6645  19.62$  10.53$  17.89$
  Q  -1.3290  18.87$  10.44$  18.18$
  Q  0.6645  18.09$  6.5$  5.6$
  Q  0.6645  19.64$  6.28$  5.28$
  Q  -1.3290  18.79$  6.2$  5.19$
  Q  0.6645  17.16$  4.95$  11.54$
  Q  0.6645  18.66$  5.2$  11.43$
  Q  -1.3290  17.84$  5.36$  11.28$
  Q  0.6645  1.09$  13.2$  12.51$
  Q  0.6645  2$  14.27$  13.31$
  Q  -1.3290  1.3$  13.91$  12.94$
  Q  0.6645  11.77$  4.13$  8.25$
  Q  0.6645  13.21$  3.96$  8.84$
  Q  -1.3290  12.59$  4.29$  8.35$
  Q  0.6645  13.11$  0.41$  12.95$
  Q  0.6645  13.78$  1.82$  12.88$
  Q  -1.3290  13.75$  0.97$  12.93$
  Q  0.6645  3.91$  12.36$  10.98$
  Q  0.6645  3.65$  11.87$  12.48$
  Q  -1.3290  3.49$  11.98$  11.65$
  Q  0.6645  19.72$  10.14$  8.38$
  Q  0.6645  18.26$  10.4$  8.44$
  Q  -1.3290  19.02$  10.28$  8.79$
  Q  0.6645  8.99$  20.57$  7.02$
  Q  0.6645  7.56$  20.02$  7.18$
  Q  -1.3290  8.29$  20.36$  7.45$
  Q  0.6645  15.71$  17.49$  10.29$
  Q  0.6645  14.45$  17.64$  9.55$
  Q  -1.3290  15.19$  17.29$  9.69$
  Q  0.6645  5.67$  14.11$  11.1$
  Q  0.6645  4.57$  14.54$  11.94$
  Q  -1.3290  4.9$  14.31$  11.22$
  Q  0.6645  10.97$  19.01$  7.63$
  Q  0.6645  10.61$  18.53$  9.07$
  Q  -1.3290  10.97$  18.46$  8.29$
  Q  0.6645  17.1$  15.08$  4.72$
  Q  0.6645  16.11$  13.92$  5.24$
  Q  -1.3290  16.59$  14.66$  5.26$
  Q  0.6645  3.56$  10.9$  3.73$
  Q  0.6645  3.73$  10.98$  2.21$
  Q  -1.3290  3.62$  11.27$  3$
  Q  0.6645  15.13$  2.18$  9.24$
  Q  0.6645  15.13$  2.97$  10.56$
  Q  -1.3290  14.9$  2.79$  9.76$
  Q  0.6645  19.54$  9.87$  11.57$
  Q  0.6645  20.54$  8.69$  11.55$
  Q  -1.3290  20.16$  9.39$  11.86$
  Q  0.6645  5.88$  4.42$  5.57$
  Q  0.6645  6.42$  3.47$  6.73$
  Q  -1.3290  6.01$  4.15$  6.39$
  Q  0.6645  21.52$  14.34$  10.63$
  Q  0.6645  20.96$  12.99$  11.02$
  Q  -1.3290  20.95$  13.73$  10.6$
  Q  0.6645  4.71$  6.95$  7.78$
  Q  0.6645  5.6$  5.74$  7.58$
  Q  -1.3290  5.41$  6.54$  7.74$
  Q  0.6645  17.96$  12.97$  14$
  Q  0.6645  16.49$  13.24$  14.35$
  Q  -1.3290  17.32$  13.41$  14.31$
  Q  0.6645  7.52$  18.21$  13.76$
  Q  0.6645  6.3$  18.79$  13.05$
  Q  -1.3290  6.92$  18.8$  13.59$
  Q  0.6645  3.02$  12.24$  7.66$
  Q  0.6645  2.7$  13.42$  6.67$
  Q  -1.3290  2.56$  12.67$  7.04$
  Q  0.6645  13.29$  9.92$  2.76$
  Q  0.6645  13.11$  10.2$  4.41$
  Q  -1.3290  13.11$  9.76$  3.62$
  Q  0.6645  5.39$  2.17$  8.51$
  Q  0.6645  5.83$  3.34$  9.44$
  Q  -1.3290  5.95$  2.71$  8.88$
  Q  0.6645  17.31$  14.33$  10.19$
  Q  0.6645  18.17$  14.89$  11.3$
  Q  -1.3290  17.55$  14.44$  10.99$
  Q  0.6645  18.8$  5.37$  15.7$
  Q  0.6645  18.06$  6.37$  16.59$
  Q  -1.3290  18.61$  5.74$  16.44$
  Q  0.6645  19.79$  10.99$  13.28$
  Q  0.6645  19.49$  10.91$  14.74$
  Q  -1.3290  19.61$  11.31$  14.03$
*
