! NoMOPrint PrintBasis #MINIPRINT SMALLPRINT LARGEPRINT
! ALLPOP XYZFILE
#! BP86 3-21G   TightSCF
! ENGRAD
! B3LYP NormalPNO PModel #DecontractAux
#! VerySlowConv 
 %maxcore 5000
 %scf  maxiter   500  end 

%pal
    nprocs 32
end

%basis
    NewGTO O    # New basis for oxygen
        "aug-cc-pVTZ"
    end
    NewGTO C    # New basis for carbon
        "aug-cc-pVTZ"
    end
    NewGTO H    # New basis for hydrogen
        "cc-pVTZ"
    end
end

* xyz 0   1
  C  10.48  10.26  11.96  #1
  H  11.59  10.34  11.93  #2
  H  10.19  9.22  11.67  #3
  C  9.88  11.36  11.06  #4
  H  8.82  11.43  11.22  #5
  H  10.14  12.41  11.34  #6
  C  10.18  11.05  9.58  #7
  H  9.69  11.93  8.97  #8
  H  9.78  10.08  9.31  #9
  C  11.68  11.02  9.33  #10
  H  12.29  10.56  10.08  #11
  H  12.08  12.03  9.2  #12
  O  11.92  10.34  8.04  #13
  H  12.82  10.45  7.72  #14
  O  10.08  10.45  13.32  #15
  H  10.81  10.08  13.91  #16
  O  13.29  7.55  10.33  #17
  H  13.65  8.38  10.61  #18
  H  13.13  7.62  9.37  #19
  O  11.6  9.74  5.11  #20
  H  11.47  10.25  5.93  #21
  H  10.74  9.94  4.72  #22
  O  9.83  14.67  12.99  #23
  H  9.28  15.43  13.07  #24
  H  9.14  14.09  12.67  #25
  O  14.97  12.59  10.47  #26
  H  15.67  12.24  11.04  #27
  H  14.23  12.63  11.13  #28
  O  7.04  9.29  11.29  #29
  H  7.16  8.4  11.65  #30
  H  7.24  9.83  12.07  #31
  O  13.39  12.4  12.71  #32
  H  13.83  12.08  13.5  #33
  H  12.68  12.72  13.25  #34
  O  13.65  7.76  4.87  #35
  H  13.25  6.89  4.76  #36
  H  13.02  8.39  4.54  #37
  O  12.46  13.3  6.22  #38
  H  12.94  13.8  5.54  #39
  H  13.01  13.08  6.93  #40
  O  14.64  11.86  7.41  #41
  H  15.03  11.54  6.6  #42
  H  15.41  12.12  8.01  #43
  O  7.77  8.44  8.57  #44
  H  7.53  8.83  9.45  #45
  H  8.38  7.69  8.88  #46
  O  12.69  7.17  7.74  #47
  H  12.69  7.65  6.89  #48
  H  12.86  6.26  7.45  #49
  O  7.96  16.64  12.85  #50
  H  8.11  17.55  12.46  #51
  H  7.37  16.78  13.55  #52
  O  7.77  9.94  6.13  #53
  H  7.82  10.86  6.33  #54
  H  7.97  9.51  7  #55
  O  13.42  11.11  3.53  #56
  H  12.83  10.51  3.98  #57
  H  13.32  10.87  2.64  #58
  O  14.94  9.97  9.7  #59
  H  15.08  9.6  8.83  #60
  H  14.62  10.91  9.54  #61
  O  17.05  10.86  12.75  #62
  H  17.41  11.47  13.4  #63
  H  16.28  10.41  13.11  #64
  O  10.74  7.55  10.79  #65
  H  10.59  7.03  9.98  #66
  H  11.72  7.5  10.93  #67
  O  9.33  10.43  3.85  #68
  H  9.27  11.35  3.57  #69
  H  8.68  10.34  4.56  #70
  O  9.61  13.41  6.94  #71
  H  10.53  13.17  6.78  #72
  H  9.62  14.07  7.67  #73
  O  11.55  14.61  10.14  #74
  H  12.34  15.12  9.98  #75
  H  11.68  14.49  11.13  #76
  O  4.61  10.32  10.46  #77
  H  3.89  10.35  11.09  #78
  H  5.23  9.8  10.91  #79
  O  12.5  9.49  14.5  #80
  H  12.48  10.09  15.28  #81
  H  12.33  8.68  15.02  #82
  O  9.39  8.74  16.44  #83
  H  9.64  9.7  16.25  #84
  H  9.21  8.21  15.64  #85
  O  7.08  13.74  12.53  #86
  H  7.09  12.92  13.09  #87
  H  6.56  13.33  11.82  #88
  O  15.74  15.1  11.32  #89
  H  15.7  14.24  10.86  #90
  H  16.64  15.36  11.4  #91
  O  11.58  13.26  14.66  #92
  H  12.09  13.69  15.35  #93
  H  11.08  14.04  14.4  #94
  O  7.4  11.02  13.63  #95
  H  8.37  10.94  13.73  #96
  H  7  11.03  14.48  #97
  O  14.55  9.2  12.67  #98
  H  14.61  9.6  11.82  #99
  H  13.82  9.66  13.16  #100
  O  8.26  6.96  12.06  #101
  H  8.45  7.22  12.97  #102
  H  9.07  7.2  11.55  #103
  Q  0.6645  9.87$  11.33$  19.49$
  Q  0.6645  8.45$  10.69$  19.83$
  Q  -1.3290  9.3$  10.74$  19.84$
  Q  0.6645  7.63$  8.96$  17.17$
  Q  0.6645  6.95$  8.14$  18.33$
  Q  -1.3290  7$  8.65$  17.65$
  Q  0.6645  13.34$  2.54$  10.35$
  Q  0.6645  13.82$  3.78$  11.02$
  Q  -1.3290  13.74$  3.27$  10.37$
  Q  0.6645  10.15$  3.45$  5.44$
  Q  0.6645  9.43$  3.56$  6.81$
  Q  -1.3290  9.97$  3.77$  6.21$
  Q  0.6645  10.1$  1.41$  11.18$
  Q  0.6645  10.64$  1.25$  9.62$
  Q  -1.3290  10.07$  1.2$  10.32$
  Q  0.6645  13.41$  3.67$  19.25$
  Q  0.6645  13.93$  3.18$  20.48$
  Q  -1.3290  14.01$  3.38$  19.72$
  Q  0.6645  16.6$  6.58$  12.19$
  Q  0.6645  17.65$  6.52$  11.1$
  Q  -1.3290  17.35$  6.39$  11.87$
  Q  0.6645  0.63$  15$  10.5$
  Q  0.6645  1.08$  14.67$  11.97$
  Q  -1.3290  0.61$  15.04$  11.35$
  Q  0.6645  5.66$  18.49$  10.35$
  Q  0.6645  5.89$  17.03$  9.85$
  Q  -1.3290  5.43$  17.69$  10.17$
  Q  0.6645  12.29$  18.98$  11.48$
  Q  0.6645  13.34$  19.38$  10.45$
  Q  -1.3290  12.57$  19.24$  10.72$
  Q  0.6645  5.9$  2.95$  8.25$
  Q  0.6645  4.99$  1.73$  7.93$
  Q  -1.3290  5.72$  2.12$  8.09$
  Q  0.6645  2.87$  14.93$  13.15$
  Q  0.6645  2.03$  14.66$  14.38$
  Q  -1.3290  2.37$  14.47$  13.64$
  Q  0.6645  16.79$  3.11$  12.88$
  Q  0.6645  16.78$  4.64$  12.62$
  Q  -1.3290  16.8$  3.94$  13.08$
  Q  0.6645  6.22$  4.52$  14.61$
  Q  0.6645  5.53$  4.68$  13.21$
  Q  -1.3290  5.96$  4.27$  13.81$
  Q  0.6645  13.2$  12.86$  1.79$
  Q  0.6645  13.55$  12.58$  0.2$
  Q  -1.3290  13.54$  12.98$  0.99$
  Q  0.6645  16.93$  10.21$  0.89$
  Q  0.6645  17.24$  10.37$  2.38$
  Q  -1.3290  16.98$  9.94$  1.69$
  Q  0.6645  14.51$  16.14$  8.97$
  Q  0.6645  14.64$  16.33$  10.45$
  Q  -1.3290  14.21$  16.29$  9.72$
  Q  0.6645  13.67$  15.95$  4.97$
  Q  0.6645  14.87$  15.29$  4.21$
  Q  -1.3290  14.36$  15.48$  4.89$
  Q  0.6645  8.69$  1.53$  13.17$
  Q  0.6645  9.66$  2.81$  12.94$
  Q  -1.3290  9.43$  2$  13.08$
  Q  0.6645  7.29$  5.5$  11.64$
  Q  0.6645  6.3$  5.45$  10.39$
  Q  -1.3290  6.89$  5.12$  10.96$
  Q  0.6645  15.19$  10.54$  4.59$
  Q  0.6645  16.68$  11.04$  4.73$
  Q  -1.3290  15.92$  10.7$  4.99$
  Q  0.6645  3.86$  18.64$  13.2$
  Q  0.6645  3.94$  17.16$  13.3$
  Q  -1.3290  3.62$  17.89$  13.47$
  Q  0.6645  1.8$  4.16$  12.53$
  Q  0.6645  3.11$  3.53$  11.92$
  Q  -1.3290  2.62$  4.13$  12.26$
  Q  0.6645  21.32$  8.58$  9.09$
  Q  0.6645  20.37$  7.35$  8.89$
  Q  -1.3290  20.99$  7.9$  8.68$
  Q  0.6645  10.05$  12.37$  15.86$
  Q  0.6645  8.71$  12.09$  16.42$
  Q  -1.3290  9.52$  12.05$  16.44$
  Q  0.6645  13.56$  11.62$  16.59$
  Q  0.6645  12.48$  11.52$  17.67$
  Q  -1.3290  12.96$  11.21$  17.03$
  Q  0.6645  1.71$  10.57$  8.42$
  Q  0.6645  2.64$  10.83$  7.26$
  Q  -1.3290  1.99$  10.97$  7.73$
  Q  0.6645  7.41$  7.62$  5.11$
  Q  0.6645  6.55$  6.76$  4.06$
  Q  -1.3290  6.75$  7.43$  4.58$
  Q  0.6645  18.13$  13.41$  14.66$
  Q  0.6645  17.77$  12.27$  15.66$
  Q  -1.3290  17.94$  12.63$  14.91$
  Q  0.6645  16.91$  9.12$  7.57$
  Q  0.6645  15.93$  9.41$  6.55$
  Q  -1.3290  16.19$  9.01$  7.23$
  Q  0.6645  7.67$  15.81$  2.23$
  Q  0.6645  8.34$  15.6$  0.92$
  Q  -1.3290  7.91$  15.37$  1.59$
  Q  0.6645  6.36$  13.91$  7.05$
  Q  0.6645  5.99$  15.34$  7.58$
  Q  -1.3290  5.98$  14.45$  7.56$
  Q  0.6645  17.63$  17.87$  8.05$
  Q  0.6645  17.53$  17.96$  6.51$
  Q  -1.3290  17.24$  18.07$  7.32$
  Q  0.6645  14.59$  12.74$  19.17$
  Q  0.6645  14.15$  14.01$  18.26$
  Q  -1.3290  14.66$  13.52$  18.77$
  Q  0.6645  14.9$  3.7$  2.87$
  Q  0.6645  13.92$  4.85$  3.56$
  Q  -1.3290  14.66$  4.46$  3.24$
  Q  0.6645  7.32$  12.17$  2.64$
  Q  0.6645  8.08$  13.6$  2.43$
  Q  -1.3290  7.9$  12.79$  2.78$
  Q  0.6645  -0.43$  7.98$  13.49$
  Q  0.6645  0.87$  8.8$  13.45$
  Q  -1.3290  0.41$  8.11$  13.48$
  Q  0.6645  12.35$  4.44$  17.4$
  Q  0.6645  11.2$  3.68$  18.18$
  Q  -1.3290  11.95$  4.1$  18.08$
  Q  0.6645  11.72$  7.46$  2.56$
  Q  0.6645  13.04$  7.13$  1.82$
  Q  -1.3290  12.43$  7.65$  2.13$
  Q  0.6645  1.38$  14.32$  8.25$
  Q  0.6645  0.29$  15.49$  8.13$
  Q  -1.3290  0.61$  14.7$  8.33$
  Q  0.6645  10.12$  18.98$  15.46$
  Q  0.6645  9.19$  18.56$  14.33$
  Q  -1.3290  9.86$  18.47$  14.83$
  Q  0.6645  2.3$  17.32$  10.41$
  Q  0.6645  1.43$  18.6$  10.08$
  Q  -1.3290  1.99$  17.98$  9.93$
  Q  0.6645  13.66$  17.2$  13.14$
  Q  0.6645  14.48$  15.83$  12.92$
  Q  -1.3290  14.29$  16.64$  13.25$
  Q  0.6645  2.64$  6.63$  16.14$
  Q  0.6645  3.36$  7.28$  17.19$
  Q  -1.3290  3.34$  6.79$  16.54$
  Q  0.6645  5.76$  8.58$  2.93$
  Q  0.6645  4.51$  8.64$  1.88$
  Q  -1.3290  5.26$  8.36$  2.24$
  Q  0.6645  19.57$  10.06$  12.68$
  Q  0.6645  19.92$  11.6$  12.62$
  Q  -1.3290  20$  10.77$  12.44$
  Q  0.6645  13.57$  7.24$  16.55$
  Q  0.6645  12.39$  6.62$  15.79$
  Q  -1.3290  12.76$  7.17$  16.28$
  Q  0.6645  11.95$  3.32$  15.36$
  Q  0.6645  11.32$  4.46$  14.52$
  Q  -1.3290  11.66$  4.11$  15.22$
  Q  0.6645  3.7$  13.85$  8.11$
  Q  0.6645  2.75$  12.67$  8.54$
  Q  -1.3290  3.11$  13.46$  8.58$
  Q  0.6645  14.95$  16.94$  16.66$
  Q  0.6645  14.87$  16.48$  15.18$
  Q  -1.3290  15.03$  16.4$  16.01$
  Q  0.6645  3.62$  15.17$  11.06$
  Q  0.6645  3.99$  16.65$  11.04$
  Q  -1.3290  3.48$  15.99$  11.18$
  Q  0.6645  21.22$  12.07$  5.51$
  Q  0.6645  20.26$  11.02$  6.17$
  Q  -1.3290  20.51$  11.58$  5.59$
  Q  0.6645  12.43$  0.96$  14.36$
  Q  0.6645  10.92$  1.46$  14.32$
  Q  -1.3290  11.69$  1.25$  14.7$
  Q  0.6645  3.87$  7.81$  14.91$
  Q  0.6645  4.12$  7.33$  13.48$
  Q  -1.3290  4.03$  7.9$  14.09$
  Q  0.6645  14.81$  2.35$  14.5$
  Q  0.6645  15.34$  3.68$  14.24$
  Q  -1.3290  14.91$  3.13$  14.71$
  Q  0.6645  17.67$  14.31$  5.8$
  Q  0.6645  16.54$  14.7$  6.85$
  Q  -1.3290  17.22$  14.29$  6.55$
  Q  0.6645  19.26$  6.59$  6.47$
  Q  0.6645  19.35$  5.16$  7.21$
  Q  -1.3290  19.48$  5.77$  6.62$
  Q  0.6645  18.1$  4.13$  9.76$
  Q  0.6645  19.54$  4.81$  9.63$
  Q  -1.3290  18.93$  4.17$  9.56$
  Q  0.6645  19.69$  8.56$  0.84$
  Q  0.6645  18.66$  8.47$  1.91$
  Q  -1.3290  19.33$  8.22$  1.49$
  Q  0.6645  2.2$  4.7$  5.19$
  Q  0.6645  3.73$  4.9$  5.59$
  Q  -1.3290  3.02$  5.02$  5.12$
  Q  0.6645  12.42$  8.52$  19.3$
  Q  0.6645  13.13$  9.4$  18.33$
  Q  -1.3290  13.11$  8.91$  19.03$
  Q  0.6645  19.31$  15.17$  3.58$
  Q  0.6645  17.78$  15.12$  3.31$
  Q  -1.3290  18.47$  15.26$  3.78$
  Q  0.6645  4.78$  2.35$  5.88$
  Q  0.6645  5.43$  3.62$  6.47$
  Q  -1.3290  5.03$  3.16$  5.88$
  Q  0.6645  16.7$  9.61$  10.16$
  Q  0.6645  18.07$  10.06$  10.81$
  Q  -1.3290  17.55$  9.6$  10.31$
  Q  0.6645  8.05$  20.1$  12.82$
  Q  0.6645  8.81$  19.59$  11.62$
  Q  -1.3290  8.46$  19.53$  12.38$
  Q  0.6645  4.92$  10.45$  8.33$
  Q  0.6645  4.91$  9.43$  7.13$
  Q  -1.3290  4.64$  10.08$  7.59$
  Q  0.6645  7.92$  14.27$  16.41$
  Q  0.6645  7.9$  15.56$  17.25$
  Q  -1.3290  8.11$  15.09$  16.57$
  Q  0.6645  3.05$  15.54$  5.14$
  Q  0.6645  3.47$  14.11$  4.54$
  Q  -1.3290  3.1$  14.92$  4.57$
  Q  0.6645  9.7$  5.27$  12.54$
  Q  0.6645  11.21$  4.76$  12.53$
  Q  -1.3290  10.34$  4.73$  12.68$
  Q  0.6645  10.86$  6.6$  19.89$
  Q  0.6645  10.99$  5.08$  19.54$
  Q  -1.3290  10.78$  5.76$  20.03$
  Q  0.6645  18.92$  16.82$  12.63$
  Q  0.6645  18.96$  15.55$  11.8$
  Q  -1.3290  18.57$  16.2$  12.19$
  Q  0.6645  10.18$  18.2$  5.86$
  Q  0.6645  10.67$  18.6$  7.26$
  Q  -1.3290  10.44$  18.75$  6.46$
  Q  0.6645  9.76$  11.67$  -0.04$
  Q  0.6645  11.12$  11.47$  0.62$
  Q  -1.3290  10.41$  11.91$  0.43$
  Q  0.6645  12.64$  15.32$  16.82$
  Q  0.6645  14.05$  14.83$  16.42$
  Q  -1.3290  13.27$  14.75$  16.79$
  Q  0.6645  6.64$  11.95$  17.48$
  Q  0.6645  6.13$  12.27$  16.03$
  Q  -1.3290  6.69$  12.25$  16.68$
  Q  0.6645  10.75$  6.88$  8.11$
  Q  0.6645  9.87$  5.6$  8.53$
  Q  -1.3290  10.03$  6.41$  8.34$
  Q  0.6645  14.62$  7.45$  13.17$
  Q  0.6645  15$  6.47$  14.3$
  Q  -1.3290  14.88$  6.71$  13.51$
  Q  0.6645  5.4$  5.85$  16.29$
  Q  0.6645  6.64$  5.61$  16.96$
  Q  -1.3290  6.11$  5.48$  16.35$
  Q  0.6645  10.29$  8.89$  19.56$
  Q  0.6645  10.64$  8.25$  18.3$
  Q  -1.3290  10.64$  8.32$  19.09$
  Q  0.6645  2.02$  6.24$  11.3$
  Q  0.6645  2.04$  7.84$  11.23$
  Q  -1.3290  1.92$  7.04$  10.99$
  Q  0.6645  16.55$  5.95$  6.37$
  Q  0.6645  16.09$  7.05$  7.14$
  Q  -1.3290  16.43$  6.3$  7.08$
  Q  0.6645  4.95$  13.27$  9.52$
  Q  0.6645  5.21$  12.09$  10.58$
  Q  -1.3290  5.21$  12.9$  10.26$
  Q  0.6645  18.25$  17.05$  10.06$
  Q  0.6645  18.82$  18.55$  10.19$
  Q  -1.3290  18.7$  17.8$  9.84$
  Q  0.6645  15.75$  17.75$  12.56$
  Q  0.6645  17.16$  17.73$  11.75$
  Q  -1.3290  16.41$  18.05$  12.08$
  Q  0.6645  16.09$  8.1$  1.67$
  Q  0.6645  15.04$  7.06$  0.86$
  Q  -1.3290  15.77$  7.35$  1.26$
  Q  0.6645  8.67$  9.18$  2.54$
  Q  0.6645  9.01$  8.89$  0.97$
  Q  -1.3290  8.83$  8.72$  1.8$
  Q  0.6645  1.63$  12.56$  14$
  Q  0.6645  0.9$  11.6$  15.03$
  Q  -1.3290  1.48$  11.84$  14.46$
  Q  0.6645  10.62$  17.52$  17.66$
  Q  0.6645  9.41$  18.24$  18.25$
  Q  -1.3290  10.23$  18.01$  18.21$
  Q  0.6645  15.92$  6.1$  3.94$
  Q  0.6645  15.58$  7.54$  4.55$
  Q  -1.3290  16.08$  6.83$  4.38$
  Q  0.6645  4.82$  13.69$  19.11$
  Q  0.6645  5.78$  13.89$  20.47$
  Q  -1.3290  5.46$  14$  19.64$
  Q  0.6645  12.36$  17.44$  6.57$
  Q  0.6645  13.86$  17.31$  6.29$
  Q  -1.3290  13.06$  17.47$  6.09$
  Q  0.6645  2.26$  10.63$  13.14$
  Q  0.6645  3.11$  9.36$  13.09$
  Q  -1.3290  2.68$  10$  12.76$
  Q  0.6645  16.19$  3.93$  16.06$
  Q  0.6645  17.7$  4.26$  15.76$
  Q  -1.3290  16.99$  4.23$  16.21$
  Q  0.6645  12.52$  20.28$  6.6$
  Q  0.6645  12.42$  21.56$  7.35$
  Q  -1.3290  12.81$  20.88$  7.08$
  Q  0.6645  6.64$  14.71$  9.82$
  Q  0.6645  6.97$  15.69$  10.99$
  Q  -1.3290  6.96$  15.4$  10.19$
  Q  0.6645  13.14$  9.99$  0.15$
  Q  0.6645  12.41$  9.26$  1.21$
  Q  -1.3290  12.62$  9.95$  0.77$
  Q  0.6645  18.31$  15.15$  8.45$
  Q  0.6645  17.74$  14.29$  9.47$
  Q  -1.3290  18.07$  14.96$  9.23$
  Q  0.6645  9.18$  3.04$  9.52$
  Q  0.6645  8.14$  4.24$  9.71$
  Q  -1.3290  8.8$  3.78$  9.3$
  Q  0.6645  15.74$  7.43$  16.27$
  Q  0.6645  15.87$  5.94$  16.52$
  Q  -1.3290  15.42$  6.65$  16.33$
  Q  0.6645  4.46$  1.8$  15.79$
  Q  0.6645  5.45$  2.71$  14.91$
  Q  -1.3290  5.12$  2.3$  15.6$
  Q  0.6645  17.86$  15.46$  13.88$
  Q  0.6645  16.91$  15.47$  15.1$
  Q  -1.3290  17.64$  15.4$  14.7$
  Q  0.6645  17.55$  11.73$  18.01$
  Q  0.6645  16.23$  12.2$  17.89$
  Q  -1.3290  16.86$  11.82$  17.61$
  Q  0.6645  16.23$  4.92$  8.59$
  Q  0.6645  15.62$  3.85$  9.64$
  Q  -1.3290  16.23$  4.33$  9.22$
  Q  0.6645  9.23$  6.93$  6.69$
  Q  0.6645  9.92$  5.82$  6.02$
  Q  -1.3290  9.47$  6.5$  6.02$
  Q  0.6645  5.3$  13.06$  5.22$
  Q  0.6645  4.62$  11.68$  5.08$
  Q  -1.3290  4.6$  12.53$  5.13$
  Q  0.6645  10.36$  5.23$  1.68$
  Q  0.6645  10.48$  4.94$  0.18$
  Q  -1.3290  10.59$  4.78$  1$
  Q  0.6645  4.22$  12.03$  15.04$
  Q  0.6645  4.73$  13.5$  14.47$
  Q  -1.3290  4.77$  12.65$  14.75$
  Q  0.6645  5.01$  9.73$  16.83$
  Q  0.6645  4.43$  9.68$  15.45$
  Q  -1.3290  4.43$  9.91$  16.24$
  Q  0.6645  15.32$  11.08$  20.83$
  Q  0.6645  14.29$  10.58$  19.86$
  Q  -1.3290  14.55$  11$  20.54$
  Q  0.6645  -0.22$  10.43$  11.01$
  Q  0.6645  -0.38$  11.02$  9.58$
  Q  -1.3290  -0.07$  10.49$  10.16$
  Q  0.6645  4.86$  6.41$  11.4$
  Q  0.6645  3.95$  5.45$  12.22$
  Q  -1.3290  4.58$  6$  12.08$
  Q  0.6645  5.23$  11.18$  1.25$
  Q  0.6645  5.03$  11.47$  2.76$
  Q  -1.3290  5.42$  11.54$  1.99$
  Q  0.6645  18.83$  14.43$  1.4$
  Q  0.6645  17.29$  14.47$  1.32$
  Q  -1.3290  18.02$  14.13$  1.5$
  Q  0.6645  7.34$  2.83$  16.92$
  Q  0.6645  8.39$  2.71$  15.77$
  Q  -1.3290  8.12$  2.87$  16.57$
  Q  0.6645  8.08$  16.87$  3.98$
  Q  0.6645  7.03$  17.71$  3.19$
  Q  -1.3290  7.31$  17.05$  3.65$
  Q  0.6645  2.17$  6.98$  8.62$
  Q  0.6645  1.47$  7.39$  7.42$
  Q  -1.3290  2.13$  7.12$  7.81$
  Q  0.6645  2.7$  17.58$  6.62$
  Q  0.6645  3.02$  16.81$  7.94$
  Q  -1.3290  3.05$  16.97$  7.11$
  Q  0.6645  14.43$  18.69$  3.51$
  Q  0.6645  13.84$  18.98$  4.91$
  Q  -1.3290  14.09$  19.15$  4.13$
  Q  0.6645  18$  12.56$  3.87$
  Q  0.6645  19.09$  11.48$  4.34$
  Q  -1.3290  18.36$  11.76$  3.92$
  Q  0.6645  7.06$  15.27$  19.18$
  Q  0.6645  7.27$  16.75$  18.84$
  Q  -1.3290  7.53$  15.98$  19.02$
  Q  0.6645  18.02$  11.84$  20.95$
  Q  0.6645  17.38$  12.41$  22.15$
  Q  -1.3290  17.42$  11.91$  21.5$
  Q  0.6645  16.06$  3.32$  6.52$
  Q  0.6645  15.29$  3.97$  5.34$
  Q  -1.3290  15.37$  3.55$  6.1$
  Q  0.6645  6.9$  2.01$  10.33$
  Q  0.6645  6.52$  3.28$  11.33$
  Q  -1.3290  6.49$  2.47$  10.96$
  Q  0.6645  1.74$  11.99$  5.84$
  Q  0.6645  1.41$  13.48$  5.35$
  Q  -1.3290  1.36$  12.62$  5.37$
  Q  0.6645  16.76$  7.93$  19.61$
  Q  0.6645  15.37$  8.3$  19.09$
  Q  -1.3290  16.22$  8.43$  19.16$
  Q  0.6645  2.33$  8.6$  5.14$
  Q  0.6645  2.79$  7.32$  4.45$
  Q  -1.3290  2.77$  8.15$  4.57$
  Q  0.6645  5.67$  4.52$  4.15$
  Q  0.6645  4.81$  5.67$  3.51$
  Q  -1.3290  5.52$  5.22$  3.66$
  Q  0.6645  12.95$  19.1$  13.9$
  Q  0.6645  11.5$  18.79$  13.54$
  Q  -1.3290  12.35$  18.74$  13.41$
  Q  0.6645  9.72$  6.58$  4.15$
  Q  0.6645  9.8$  7.29$  2.9$
  Q  -1.3290  10.1$  6.76$  3.43$
  Q  0.6645  4.32$  7.5$  9.38$
  Q  0.6645  5.85$  7.41$  9.51$
  Q  -1.3290  5.04$  7.21$  9.68$
  Q  0.6645  17.68$  9.32$  15.96$
  Q  0.6645  16.56$  9.91$  16.67$
  Q  -1.3290  16.88$  9.38$  16.14$
  Q  0.6645  11.73$  17.62$  9.38$
  Q  0.6645  10.74$  16.68$  8.61$
  Q  -1.3290  11.28$  17.38$  8.73$
  Q  0.6645  17.54$  12.85$  7.92$
  Q  0.6645  17.76$  11.39$  8.58$
  Q  -1.3290  17.52$  12.22$  8.56$
  Q  0.6645  5.04$  16.02$  16.71$
  Q  0.6645  5.1$  15.47$  18.26$
  Q  -1.3290  4.86$  15.94$  17.56$
  Q  0.6645  10.65$  16.8$  15.71$
  Q  0.6645  10.19$  15.59$  16.47$
  Q  -1.3290  10.77$  16.17$  16.24$
  Q  0.6645  5.86$  15.03$  13.32$
  Q  0.6645  5.5$  16.03$  14.45$
  Q  -1.3290  5.38$  15.37$  13.93$
  Q  0.6645  12.29$  4.68$  5.48$
  Q  0.6645  11.61$  5.5$  4.32$
  Q  -1.3290  12.26$  5.21$  4.8$
  Q  0.6645  20.17$  10.15$  15.73$
  Q  0.6645  19.95$  8.7$  16.14$
  Q  -1.3290  19.72$  9.46$  15.81$
  Q  0.6645  19.55$  7.44$  4.45$
  Q  0.6645  17.95$  7.53$  4.53$
  Q  -1.3290  18.8$  7.71$  4.72$
  Q  0.6645  10.34$  15.03$  9.31$
  Q  0.6645  8.74$  15.28$  9.48$
  Q  -1.3290  9.52$  15.23$  9.08$
  Q  0.6645  11.44$  12.32$  3.52$
  Q  0.6645  10.42$  13.04$  2.58$
  Q  -1.3290  11.02$  12.99$  3.19$
  Q  0.6645  9.89$  20.75$  9.95$
  Q  0.6645  10.52$  19.24$  10.1$
  Q  -1.3290  9.94$  19.86$  10.11$
  Q  0.6645  7.65$  6.65$  15.05$
  Q  0.6645  8.91$  5.94$  15.14$
  Q  -1.3290  8.44$  6.57$  14.89$
  Q  0.6645  5.59$  7.41$  6.12$
  Q  0.6645  4.18$  7.31$  6.64$
  Q  -1.3290  5$  7.36$  6.7$
  Q  0.6645  15.79$  12.15$  14.66$
  Q  0.6645  15.47$  10.69$  15.15$
  Q  -1.3290  15.3$  11.46$  14.84$
  Q  0.6645  13.49$  4.99$  0.26$
  Q  0.6645  12.39$  6.05$  0.36$
  Q  -1.3290  13.19$  5.76$  0.41$
  Q  0.6645  7.23$  18.7$  7.64$
  Q  0.6645  8.27$  19.55$  8.39$
  Q  -1.3290  7.49$  19.34$  8.14$
  Q  0.6645  10.65$  15.2$  21.16$
  Q  0.6645  11.01$  13.8$  21.57$
  Q  -1.3290  11.04$  14.47$  21.08$
  Q  0.6645  17.79$  9.73$  19.31$
  Q  0.6645  18.94$  10.15$  18.3$
  Q  -1.3290  18.47$  10.15$  19.02$
  Q  0.6645  21.03$  11.27$  2.1$
  Q  0.6645  19.65$  11.84$  2.49$
  Q  -1.3290  20.34$  11.71$  1.96$
  Q  0.6645  11.69$  14.7$  4.01$
  Q  0.6645  11.78$  15.83$  2.98$
  Q  -1.3290  11.7$  15.51$  3.77$
  Q  0.6645  20.52$  14.13$  12.01$
  Q  0.6645  19.81$  13.07$  11.35$
  Q  -1.3290  19.97$  13.53$  11.98$
  Q  0.6645  15.94$  16.8$  7.33$
  Q  0.6645  15$  15.7$  6.54$
  Q  -1.3290  15.44$  16.12$  7.21$
  Q  0.6645  6.81$  7.42$  20.12$
  Q  0.6645  5.37$  8.07$  20.24$
  Q  -1.3290  6.22$  8.03$  20.32$
  Q  0.6645  16.59$  14.98$  18.32$
  Q  0.6645  17.77$  15.3$  19.18$
  Q  -1.3290  17.36$  15.27$  18.47$
  Q  0.6645  8.06$  5.47$  19.45$
  Q  0.6645  8.84$  6.63$  18.89$
  Q  -1.3290  8.16$  6.15$  19$
  Q  0.6645  15.85$  19.7$  8.02$
  Q  0.6645  14.54$  20.54$  7.98$
  Q  -1.3290  15.38$  20.41$  8.14$
  Q  0.6645  12.1$  2.57$  7.96$
  Q  0.6645  10.97$  1.77$  7.38$
  Q  -1.3290  11.62$  1.89$  7.91$
  Q  0.6645  15.39$  16.11$  1.82$
  Q  0.6645  14.6$  14.77$  1.87$
  Q  -1.3290  15.25$  15.28$  2.05$
  Q  0.6645  4.23$  4.46$  8.04$
  Q  0.6645  5.24$  5.62$  7.85$
  Q  -1.3290  5.01$  4.83$  7.95$
  Q  0.6645  9.26$  2.79$  18.19$
  Q  0.6645  9.2$  3.01$  19.7$
  Q  -1.3290  9.57$  2.83$  19$
  Q  0.6645  13.82$  5.21$  12.97$
  Q  0.6645  13.34$  3.88$  13.56$
  Q  -1.3290  13.35$  4.5$  12.98$
  Q  0.6645  6.05$  17.91$  15.67$
  Q  0.6645  7.08$  16.56$  15.57$
  Q  -1.3290  6.45$  17.14$  15.4$
  Q  0.6645  8.02$  13.33$  6.13$
  Q  0.6645  7.64$  13.21$  4.68$
  Q  -1.3290  7.45$  13.2$  5.48$
  Q  0.6645  8.03$  6.66$  1.68$
  Q  0.6645  7.2$  5.61$  2.45$
  Q  -1.3290  7.76$  5.9$  1.84$
  Q  0.6645  19.57$  9.05$  7.77$
  Q  0.6645  19.04$  9.17$  6.31$
  Q  -1.3290  19.25$  9.46$  7.07$
  Q  0.6645  21.03$  13.07$  8.9$
  Q  0.6645  19.5$  12.78$  8.77$
  Q  -1.3290  20.31$  12.67$  9.07$
  Q  0.6645  11.26$  13.39$  19.26$
  Q  0.6645  10.53$  12.66$  18.07$
  Q  -1.3290  11.04$  12.73$  18.74$
  Q  0.6645  5.75$  11.28$  19.83$
  Q  0.6645  6.27$  10.14$  19.37$
  Q  -1.3290  6.29$  10.9$  19.39$
  Q  0.6645  2.82$  10.2$  17.52$
  Q  0.6645  2.21$  11.35$  18.47$
  Q  -1.3290  2.23$  10.66$  17.97$
  Q  0.6645  4.41$  9.48$  4.66$
  Q  0.6645  5.86$  9.49$  4.89$
  Q  -1.3290  5.15$  9.82$  4.64$
  Q  0.6645  19.01$  8.46$  14$
  Q  0.6645  18.57$  7.47$  12.75$
  Q  -1.3290  19.11$  7.98$  13.25$
  Q  0.6645  13.24$  4.31$  8.6$
  Q  0.6645  13.74$  4.24$  7.04$
  Q  -1.3290  13.18$  4.35$  7.7$
  Q  0.6645  5.35$  17.34$  6.71$
  Q  0.6645  6.59$  17.04$  5.81$
  Q  -1.3290  6.18$  17.21$  6.53$
  Q  0.6645  18.09$  7.81$  9.33$
  Q  0.6645  17.93$  6.5$  8.61$
  Q  -1.3290  18.33$  7.05$  9.1$
  Q  0.6645  13.52$  0.79$  5.57$
  Q  0.6645  14.16$  2.19$  5.77$
  Q  -1.3290  13.58$  1.63$  5.52$
  Q  0.6645  14.28$  14.97$  20.22$
  Q  0.6645  12.79$  15.09$  20.57$
  Q  -1.3290  13.61$  15.35$  20.52$
  Q  0.6645  10.35$  16.34$  4.77$
  Q  0.6645  9.32$  15.96$  5.7$
  Q  -1.3290  9.71$  16.52$  5.23$
*
