! NoMOPrint PrintBasis #MINIPRINT SMALLPRINT LARGEPRINT
! ALLPOP XYZFILE
#! BP86 3-21G   TightSCF
! ENGRAD
! B3LYP NormalPNO PModel #DecontractAux
#! VerySlowConv 
 %maxcore 5000
 %scf  maxiter   500  end 

%pal
    nprocs 32
end

%basis
    NewGTO O    # New basis for oxygen
        "aug-cc-pVTZ"
    end
    NewGTO C    # New basis for carbon
        "aug-cc-pVTZ"
    end
    NewGTO H    # New basis for hydrogen
        "cc-pVTZ"
    end
end

* xyz 0   1
  C  11.88  10.49  9.52  #1
  H  12.53  10.88  10.25  #2
  H  11.77  11.09  8.62  #3
  C  10.59  10.27  10.18  #4
  H  9.8  10  9.39  #5
  H  10.58  9.34  10.77  #6
  C  10.01  11.44  11.06  #7
  H  8.97  11.32  11.05  #8
  H  10.18  12.41  10.54  #9
  C  10.56  11.66  12.41  #10
  H  10.34  12.68  12.82  #11
  H  11.63  11.47  12.43  #12
  O  9.98  10.83  13.43  #13
  H  9.03  11.09  13.63  #14
  O  12.41  9.24  9.06  #15
  H  12.96  9.4  8.29  #16
  O  10.98  6.97  9.04  #17
  H  11.55  7.73  8.94  #18
  H  11.15  6.35  8.34  #19
  O  6.38  12.27  11.04  #20
  H  6.39  11.34  10.74  #21
  H  6.63  12.82  10.31  #22
  O  10.87  15.65  11.34  #23
  H  11.35  16.04  10.62  #24
  H  11.36  14.8  11.52  #25
  O  9.64  13.62  15.56  #26
  H  8.92  13.98  16.11  #27
  H  10  14.44  15.24  #28
  O  7.83  11.76  14.52  #29
  H  7.15  12.4  14.25  #30
  H  8.58  12.29  14.83  #31
  O  10.52  12.39  17.68  #32
  H  10.31  13.01  16.94  #33
  H  9.68  12  18.03  #34
  O  3.71  10.43  11.95  #35
  H  4.42  10.98  11.65  #36
  H  2.86  10.83  11.55  #37
  O  7.72  14.17  17.58  #38
  H  8.47  14.48  18.12  #39
  H  7.16  14.93  17.44  #40
  O  13.46  7.11  10.97  #41
  H  12.77  6.52  11.31  #42
  H  13.13  7.96  10.67  #43
  O  10.94  8.26  12.94  #44
  H  11.78  8.67  12.76  #45
  H  10.44  9.1  13.12  #46
  O  11.27  15.73  15.21  #47
  H  11.36  16.62  14.95  #48
  H  11  15.83  16.15  #49
  O  13.8  10.35  6.26  #50
  H  13.08  10.18  5.64  #51
  H  14.03  11.3  6.24  #52
  O  13.96  11.78  13.19  #53
  H  13.95  10.9  13.62  #54
  H  14  12.39  13.99  #55
  O  7.92  16.19  10.82  #56
  H  8.76  16.01  11.25  #57
  H  7.25  16  11.47  #58
  O  10.54  18  12.94  #59
  H  11.29  18.11  13.55  #60
  H  10.71  17.11  12.5  #61
  O  13.04  13.75  11.41  #62
  H  13.65  14.35  11.8  #63
  H  13.44  12.92  11.74  #64
  O  10.96  5.96  11.55  #65
  H  10.91  6.24  10.67  #66
  H  10.79  6.78  12.01  #67
  O  15.76  7.85  9.27  #68
  H  14.83  7.71  9.66  #69
  H  16.06  7.1  8.74  #70
  O  11.79  10.67  15.83  #71
  H  11.18  11.06  16.44  #72
  H  11.57  11.02  14.96  #73
  O  7.96  7.25  9.78  #74
  H  8.79  7.21  9.34  #75
  H  8.08  6.71  10.6  #76
  O  9.19  7.55  6.11  #77
  H  9.62  7.08  5.4  #78
  H  9.36  7.04  6.91  #79
  O  12.61  16.85  9.62  #80
  H  11.9  17.36  9.25  #81
  H  12.89  16.29  8.91  #82
  O  12.26  5.16  6.6  #83
  H  12.16  4.25  7.01  #84
  H  13.08  5.12  6.1  #85
  O  7.53  14.38  8.87  #86
  H  6.85  14.6  8.23  #87
  H  7.69  15.16  9.4  #88
  O  6.22  9.43  10.04  #89
  H  6.89  8.79  9.87  #90
  H  5.65  9.55  9.24  #91
  O  6.5  10.41  16.73  #92
  H  6.62  9.48  16.85  #93
  H  7  10.64  15.96  #94
  O  5.91  13.27  13.51  #95
  H  5.83  13.1  12.6  #96
  H  5.01  13.13  13.83  #97
  Q  0.6645  11.78$  21.11$  12.13$
  Q  0.6645  11.71$  19.52$  12.13$
  Q  -1.3290  12.05$  20.3$  12.01$
  Q  0.6645  2.03$  16.45$  7.26$
  Q  0.6645  2.1$  14.93$  7.46$
  Q  -1.3290  2.41$  15.7$  7.23$
  Q  0.6645  4.73$  8.81$  21.1$
  Q  0.6645  4.7$  7.46$  22$
  Q  -1.3290  5.07$  8.16$  21.55$
  Q  0.6645  9.85$  16.43$  18.94$
  Q  0.6645  9.75$  16.63$  17.49$
  Q  -1.3290  9.92$  16.19$  18.16$
  Q  0.6645  3.84$  16.02$  10.01$
  Q  0.6645  5.28$  15.53$  10.43$
  Q  -1.3290  4.47$  15.44$  10.19$
  Q  0.6645  16.01$  17.28$  6.96$
  Q  0.6645  16.22$  18.77$  6.42$
  Q  -1.3290  15.79$  18.05$  6.64$
  Q  0.6645  9.83$  1.74$  8.9$
  Q  0.6645  8.72$  2.32$  9.89$
  Q  -1.3290  9.11$  1.78$  9.33$
  Q  0.6645  7.18$  3.79$  10.39$
  Q  0.6645  7.93$  4.68$  11.2$
  Q  -1.3290  7.87$  4.07$  10.68$
  Q  0.6645  15.6$  12.29$  7.24$
  Q  0.6645  14.78$  13.55$  7.18$
  Q  -1.3290  15.19$  12.89$  6.87$
  Q  0.6645  19.26$  16.04$  14.8$
  Q  0.6645  18.2$  15.03$  14.38$
  Q  -1.3290  18.8$  15.62$  14.23$
  Q  0.6645  19.5$  8.54$  11.23$
  Q  0.6645  20.87$  9.15$  10.9$
  Q  -1.3290  20.33$  8.56$  11.22$
  Q  0.6645  7.02$  13.6$  4$
  Q  0.6645  7.63$  12.69$  2.89$
  Q  -1.3290  7.53$  13.42$  3.32$
  Q  0.6645  14.01$  8.19$  13.04$
  Q  0.6645  13.01$  8.6$  14.02$
  Q  -1.3290  13.62$  8.75$  13.48$
  Q  0.6645  4.59$  12.58$  18.77$
  Q  0.6645  3.85$  13.22$  19.98$
  Q  -1.3290  3.97$  12.65$  19.35$
  Q  0.6645  9.52$  8.39$  18.84$
  Q  0.6645  10.58$  9.22$  19.82$
  Q  -1.3290  9.8$  8.9$  19.5$
  Q  0.6645  12.85$  17.57$  5.42$
  Q  0.6645  13.95$  17.54$  6.49$
  Q  -1.3290  13.2$  17.37$  6.17$
  Q  0.6645  5.77$  9.35$  2.45$
  Q  0.6645  6$  8.93$  0.99$
  Q  -1.3290  6.23$  9.21$  1.77$
  Q  0.6645  4.42$  3.78$  5.43$
  Q  0.6645  5.47$  2.89$  6.01$
  Q  -1.3290  4.83$  3.44$  6.05$
  Q  0.6645  3.34$  9.3$  15.36$
  Q  0.6645  3.31$  9.66$  13.9$
  Q  -1.3290  3.21$  9.14$  14.55$
  Q  0.6645  3.43$  10.92$  20.43$
  Q  0.6645  2.77$  9.72$  20.24$
  Q  -1.3290  3.17$  10.21$  20.71$
  Q  0.6645  14.93$  19.06$  13.59$
  Q  0.6645  16.19$  18.33$  14.17$
  Q  -1.3290  15.37$  18.4$  13.97$
  Q  0.6645  9.73$  4.48$  14.18$
  Q  0.6645  9.54$  3.46$  15.32$
  Q  -1.3290  9.68$  3.71$  14.52$
  Q  0.6645  10.22$  7.03$  22.1$
  Q  0.6645  9.66$  7.71$  20.77$
  Q  -1.3290  9.88$  7.07$  21.31$
  Q  0.6645  9.5$  16.01$  2.09$
  Q  0.6645  8.5$  14.7$  2.21$
  Q  -1.3290  8.81$  15.49$  1.96$
  Q  0.6645  8.38$  14.42$  20.83$
  Q  0.6645  8.76$  15.45$  21.91$
  Q  -1.3290  8.77$  15.08$  21.17$
  Q  0.6645  5.8$  4.66$  8.63$
  Q  0.6645  5.36$  3.21$  8.89$
  Q  -1.3290  5.67$  3.94$  9.11$
  Q  0.6645  10.7$  13.85$  21.48$
  Q  0.6645  11.43$  13.33$  22.65$
  Q  -1.3290  11.33$  13.47$  21.82$
  Q  0.6645  14.37$  12.21$  20.76$
  Q  0.6645  15.02$  13.48$  21.33$
  Q  -1.3290  14.6$  12.71$  21.35$
  Q  0.6645  14.36$  6.05$  18.02$
  Q  0.6645  13.63$  7.16$  17.44$
  Q  -1.3290  14.26$  6.82$  17.87$
  Q  0.6645  8.39$  17.94$  13.54$
  Q  0.6645  6.96$  17.4$  13.89$
  Q  -1.3290  7.78$  17.66$  14.04$
  Q  0.6645  21.04$  7.44$  9.61$
  Q  0.6645  22.47$  7.96$  9.49$
  Q  -1.3290  21.75$  7.64$  9.23$
  Q  0.6645  10.62$  17.83$  7.57$
  Q  0.6645  10.36$  18.79$  8.78$
  Q  -1.3290  10.48$  18.05$  8.38$
  Q  0.6645  8.68$  19.44$  17.81$
  Q  0.6645  8.21$  19.59$  19.22$
  Q  -1.3290  8.37$  19.87$  18.48$
  Q  0.6645  12.07$  15.6$  18.48$
  Q  0.6645  13.44$  15.2$  18.59$
  Q  -1.3290  12.85$  15.73$  18.37$
  Q  0.6645  14.15$  14.01$  16.03$
  Q  0.6645  13.14$  14.83$  15.29$
  Q  -1.3290  13.79$  14.32$  15.34$
  Q  0.6645  13.28$  14.71$  4.31$
  Q  0.6645  13.08$  15.39$  5.55$
  Q  -1.3290  12.85$  14.86$  4.99$
  Q  0.6645  13.91$  10.1$  2.64$
  Q  0.6645  14.44$  8.93$  3.42$
  Q  -1.3290  13.9$  9.29$  2.9$
  Q  0.6645  2.75$  16.58$  11.99$
  Q  0.6645  2.01$  16.47$  13.34$
  Q  -1.3290  2.64$  16.7$  12.82$
  Q  0.6645  19.1$  3$  10.31$
  Q  0.6645  18.96$  3.95$  11.5$
  Q  -1.3290  18.88$  3.71$  10.68$
  Q  0.6645  -0.6$  14.25$  8.39$
  Q  0.6645  0.65$  13.51$  8.59$
  Q  -1.3290  0.04$  13.82$  8.12$
  Q  0.6645  20.4$  5.77$  8.7$
  Q  0.6645  20.15$  4.71$  9.64$
  Q  -1.3290  20.58$  5.07$  9.05$
  Q  0.6645  4.6$  15.69$  7.67$
  Q  0.6645  5.6$  16.76$  7.02$
  Q  -1.3290  5.37$  16$  7.35$
  Q  0.6645  19.17$  13.63$  10.61$
  Q  0.6645  18.91$  13.35$  9.14$
  Q  -1.3290  18.95$  13.84$  9.8$
  Q  0.6645  19.42$  9.58$  2.78$
  Q  0.6645  20.51$  8.38$  2.72$
  Q  -1.3290  19.76$  8.77$  2.86$
  Q  0.6645  7.57$  19.99$  11.7$
  Q  0.6645  8.85$  20.74$  12.35$
  Q  -1.3290  8.33$  20.41$  11.71$
  Q  0.6645  9.9$  10.35$  2.49$
  Q  0.6645  11.5$  10.37$  2.29$
  Q  -1.3290  10.73$  10.1$  2.59$
  Q  0.6645  4.7$  10.79$  16.67$
  Q  0.6645  3.23$  10.74$  17.29$
  Q  -1.3290  3.85$  10.84$  16.68$
  Q  0.6645  20.86$  11.48$  5.28$
  Q  0.6645  19.8$  11.05$  4.51$
  Q  -1.3290  20.21$  11.03$  5.21$
  Q  0.6645  4.61$  7.6$  5.52$
  Q  0.6645  3.54$  6.82$  6.25$
  Q  -1.3290  4.04$  6.99$  5.61$
  Q  0.6645  15.51$  5.26$  13.99$
  Q  0.6645  15.57$  3.83$  14.44$
  Q  -1.3290  15.21$  4.49$  14.06$
  Q  0.6645  12.6$  12.82$  2.65$
  Q  0.6645  11.21$  12.93$  3.34$
  Q  -1.3290  11.75$  13.04$  2.74$
  Q  0.6645  9.18$  12.87$  6.28$
  Q  0.6645  8.29$  13.49$  7.48$
  Q  -1.3290  8.46$  13.06$  6.73$
  Q  0.6645  7.08$  6.61$  3.5$
  Q  0.6645  7.28$  7.81$  2.72$
  Q  -1.3290  7.52$  7.08$  3.02$
  Q  0.6645  15.69$  15.21$  4.43$
  Q  0.6645  15.24$  15.9$  3.15$
  Q  -1.3290  15.35$  15.23$  3.67$
  Q  0.6645  1.94$  12.46$  10.56$
  Q  0.6645  1.23$  12.32$  11.96$
  Q  -1.3290  1.41$  12.13$  11.15$
  Q  0.6645  14.49$  7.71$  19.82$
  Q  0.6645  13.84$  6.97$  21.09$
  Q  -1.3290  14.4$  7.47$  20.67$
  Q  0.6645  15.34$  10.08$  5.09$
  Q  0.6645  16.57$  9.16$  4.62$
  Q  -1.3290  16.05$  9.9$  4.68$
  Q  0.6645  21.07$  9.66$  6.25$
  Q  0.6645  21.53$  8.88$  7.57$
  Q  -1.3290  21.54$  9.13$  6.73$
  Q  0.6645  16.76$  5.71$  1.38$
  Q  0.6645  15.42$  5.79$  1.97$
  Q  -1.3290  16.13$  5.43$  1.83$
  Q  0.6645  18.69$  11.62$  2.16$
  Q  0.6645  20.18$  11.28$  2.35$
  Q  -1.3290  19.39$  11.48$  2.6$
  Q  0.6645  18.44$  7.8$  1.56$
  Q  0.6645  17.24$  7.94$  0.51$
  Q  -1.3290  17.95$  7.6$  0.86$
  Q  0.6645  2.75$  10.51$  6.31$
  Q  0.6645  1.96$  9.24$  5.82$
  Q  -1.3290  2.66$  9.72$  5.93$
  Q  0.6645  5.3$  14.97$  4.33$
  Q  0.6645  5.59$  14.72$  5.87$
  Q  -1.3290  5.39$  14.51$  5.04$
  Q  0.6645  15.84$  6.89$  5.02$
  Q  0.6645  17.26$  6.97$  4.67$
  Q  -1.3290  16.49$  7.25$  4.65$
  Q  0.6645  13.43$  14.18$  8.95$
  Q  0.6645  14.75$  14.77$  9.01$
  Q  -1.3290  14$  14.61$  8.63$
  Q  0.6645  16.85$  17.23$  9.43$
  Q  0.6645  16.1$  18.51$  9.45$
  Q  -1.3290  16.82$  18.05$  9.45$
  Q  0.6645  16.38$  7.14$  17.43$
  Q  0.6645  17.62$  6.29$  17.15$
  Q  -1.3290  17.17$  7.01$  17.14$
  Q  0.6645  15.71$  10.25$  16.48$
  Q  0.6645  16.7$  10.77$  17.49$
  Q  -1.3290  15.96$  10.78$  17.07$
  Q  0.6645  5.2$  18.69$  12.35$
  Q  0.6645  5.16$  19.66$  11.11$
  Q  -1.3290  5.51$  19.28$  11.82$
  Q  0.6645  14.4$  19.71$  10.69$
  Q  0.6645  13.87$  18.53$  9.86$
  Q  -1.3290  14.35$  19.21$  10.04$
  Q  0.6645  13.71$  1.4$  6.29$
  Q  0.6645  14.67$  2.1$  7.24$
  Q  -1.3290  14.02$  1.6$  7.03$
  Q  0.6645  16.95$  10.12$  6.61$
  Q  0.6645  18.39$  9.92$  6.28$
  Q  -1.3290  17.73$  9.91$  6.79$
  Q  0.6645  17.03$  7.06$  14.88$
  Q  0.6645  17.72$  6.07$  13.98$
  Q  -1.3290  17.12$  6.59$  14.21$
  Q  0.6645  6.76$  7.1$  16.25$
  Q  0.6645  6.54$  7.29$  17.83$
  Q  -1.3290  6.79$  7.48$  17.01$
  Q  0.6645  11.38$  13.03$  5.43$
  Q  0.6645  10.91$  11.58$  5.71$
  Q  -1.3290  10.84$  12.36$  5.36$
  Q  0.6645  16.59$  14.3$  5.91$
  Q  0.6645  17.49$  15.56$  5.67$
  Q  -1.3290  16.83$  15.11$  5.93$
  Q  0.6645  8.6$  2.19$  13.75$
  Q  0.6645  9.13$  0.98$  13.14$
  Q  -1.3290  8.52$  1.42$  13.52$
  Q  0.6645  5.77$  17.07$  19.33$
  Q  0.6645  4.94$  18.06$  20.05$
  Q  -1.3290  5.06$  17.34$  19.62$
  Q  0.6645  8.76$  5.12$  4.44$
  Q  0.6645  8.3$  4.16$  5.55$
  Q  -1.3290  8.19$  4.64$  4.83$
  Q  0.6645  5.52$  11.55$  5.21$
  Q  0.6645  6.72$  11.77$  6.15$
  Q  -1.3290  6.02$  11.38$  5.87$
  Q  0.6645  2.51$  7.12$  8.76$
  Q  0.6645  1.71$  6.7$  7.65$
  Q  -1.3290  2.43$  6.8$  8.02$
  Q  0.6645  18.35$  7.86$  7.18$
  Q  0.6645  19.04$  7.01$  6.17$
  Q  -1.3290  18.75$  7.18$  6.93$
  Q  0.6645  5.93$  18.65$  8.45$
  Q  0.6645  4.98$  19.37$  7.39$
  Q  -1.3290  5.24$  18.75$  7.92$
  Q  0.6645  4.86$  4.32$  16.62$
  Q  0.6645  4.49$  3.32$  17.66$
  Q  -1.3290  4.41$  4.04$  17.23$
  Q  0.6645  19.12$  7$  3.98$
  Q  0.6645  18.97$  5.49$  4.33$
  Q  -1.3290  18.88$  6.34$  4.44$
  Q  0.6645  12.2$  2.15$  8.09$
  Q  0.6645  11.52$  3.16$  9.08$
  Q  -1.3290  11.66$  2.76$  8.31$
  Q  0.6645  9.06$  18.25$  15.61$
  Q  0.6645  10.34$  18.49$  16.33$
  Q  -1.3290  9.62$  18.12$  16.22$
  Q  0.6645  15.84$  11.03$  9.76$
  Q  0.6645  15.92$  9.94$  8.65$
  Q  -1.3290  15.7$  10.68$  8.97$
  Q  0.6645  8.01$  11.92$  1.01$
  Q  0.6645  7.57$  10.66$  1.73$
  Q  -1.3290  7.99$  11.36$  1.64$
  Q  0.6645  10.43$  20.82$  16.06$
  Q  0.6645  11.67$  20.87$  17.07$
  Q  -1.3290  11.16$  20.55$  16.45$
  Q  0.6645  3.71$  17.89$  9.15$
  Q  0.6645  2.32$  17.38$  9.67$
  Q  -1.3290  3.13$  17.68$  9.72$
  Q  0.6645  18.54$  11.15$  8.18$
  Q  0.6645  19.64$  11.83$  7.35$
  Q  -1.3290  19.17$  11.7$  8.03$
  Q  0.6645  5.79$  6.74$  7.12$
  Q  0.6645  5.23$  5.23$  6.89$
  Q  -1.3290  5.62$  5.9$  7.28$
  Q  0.6645  20.07$  16.31$  7.83$
  Q  0.6645  19.61$  15.48$  9.29$
  Q  -1.3290  19.98$  16.12$  8.71$
  Q  0.6645  12.57$  4.34$  16.91$
  Q  0.6645  12.13$  4.25$  18.41$
  Q  -1.3290  12.41$  4.64$  17.73$
  Q  0.6645  7.85$  5.64$  7.18$
  Q  0.6645  8.2$  4.78$  8.32$
  Q  -1.3290  8.33$  5.14$  7.6$
  Q  0.6645  10.07$  16.66$  4.66$
  Q  0.6645  11.3$  16$  4.09$
  Q  -1.3290  10.69$  16.57$  4.12$
  Q  0.6645  6.25$  7.3$  20.04$
  Q  0.6645  5.38$  6.19$  19.42$
  Q  -1.3290  6.07$  6.67$  19.43$
  Q  0.6645  0.1$  13.03$  13.88$
  Q  0.6645  1.68$  13.03$  14.04$
  Q  -1.3290  0.9$  13.1$  13.65$
  Q  0.6645  10.68$  8.28$  2.17$
  Q  0.6645  9.43$  7.65$  2.14$
  Q  -1.3290  10.24$  7.64$  1.99$
  Q  0.6645  17.1$  8.28$  10.73$
  Q  0.6645  16.98$  7.33$  11.87$
  Q  -1.3290  17.32$  7.95$  11.46$
  Q  0.6645  17.09$  10.83$  0.87$
  Q  0.6645  16.95$  12.32$  0.7$
  Q  -1.3290  17.2$  11.6$  1.07$
  Q  0.6645  15.24$  11.21$  12.07$
  Q  0.6645  15.61$  9.81$  11.48$
  Q  -1.3290  15.71$  10.65$  11.66$
  Q  0.6645  12.61$  3.09$  11.16$
  Q  0.6645  11.48$  4.08$  11.34$
  Q  -1.3290  11.83$  3.41$  11.02$
  Q  0.6645  3$  16.47$  15.32$
  Q  0.6645  2.97$  15.86$  16.78$
  Q  -1.3290  3.27$  15.98$  15.99$
  Q  0.6645  14.98$  10.51$  18.69$
  Q  0.6645  15.74$  10.19$  20$
  Q  -1.3290  15.07$  10.31$  19.52$
  Q  0.6645  17.63$  2.82$  3.69$
  Q  0.6645  17.55$  4.32$  3.06$
  Q  -1.3290  17.91$  3.59$  3.43$
  Q  0.6645  19.75$  13.11$  15.32$
  Q  0.6645  21.07$  13.23$  16.08$
  Q  -1.3290  20.57$  12.91$  15.49$
  Q  0.6645  14.82$  2.28$  11.47$
  Q  0.6645  14.76$  3.41$  12.37$
  Q  -1.3290  14.53$  3.02$  11.68$
  Q  0.6645  4.97$  7.82$  13.44$
  Q  0.6645  5.6$  8.19$  12.14$
  Q  -1.3290  5.4$  7.65$  12.73$
  Q  0.6645  3.05$  13.09$  8.18$
  Q  0.6645  3.1$  14.03$  9.44$
  Q  -1.3290  2.78$  13.41$  8.94$
  Q  0.6645  7.79$  17.71$  9.78$
  Q  0.6645  8.56$  18.17$  8.69$
  Q  -1.3290  7.88$  18.14$  9.11$
  Q  0.6645  2.54$  9.55$  9.53$
  Q  0.6645  2.22$  8.93$  10.92$
  Q  -1.3290  2.13$  9.08$  10.11$
  Q  0.6645  1.11$  6.1$  14.17$
  Q  0.6645  2.04$  7.31$  14.24$
  Q  -1.3290  1.76$  6.57$  14.47$
  Q  0.6645  17.04$  4.98$  8.82$
  Q  0.6645  17.86$  5.75$  7.66$
  Q  -1.3290  17.2$  5.29$  8.01$
  Q  0.6645  3.6$  10.63$  2.65$
  Q  0.6645  3.44$  9.68$  3.8$
  Q  -1.3290  3.82$  9.95$  3.1$
  Q  0.6645  11.82$  12.58$  18.67$
  Q  0.6645  12.25$  12.74$  20.15$
  Q  -1.3290  12.37$  12.52$  19.33$
  Q  0.6645  4.93$  16.13$  13.13$
  Q  0.6645  5.8$  15.01$  13.38$
  Q  -1.3290  5.65$  15.73$  13.04$
  Q  0.6645  21.93$  11.07$  10.19$
  Q  0.6645  20.61$  11.19$  9.32$
  Q  -1.3290  21.13$  10.94$  9.97$
  Q  0.6645  15.54$  16.41$  18.35$
  Q  0.6645  16.04$  14.98$  18.54$
  Q  -1.3290  16.06$  15.82$  18.63$
  Q  0.6645  17.14$  14.56$  2.95$
  Q  0.6645  18.47$  13.94$  2.4$
  Q  -1.3290  17.77$  14.42$  2.4$
  Q  0.6645  20.38$  12.08$  11.31$
  Q  0.6645  19.56$  12.22$  12.63$
  Q  -1.3290  19.95$  12.51$  11.94$
  Q  0.6645  3.97$  4.87$  13.38$
  Q  0.6645  3.3$  5.32$  14.7$
  Q  -1.3290  3.88$  4.92$  14.22$
  Q  0.6645  10.59$  6.23$  3.43$
  Q  0.6645  11.43$  5.61$  4.66$
  Q  -1.3290  10.76$  5.7$  4.11$
  Q  0.6645  13.11$  17.37$  2.27$
  Q  0.6645  14.39$  18$  2.86$
  Q  -1.3290  13.61$  17.71$  2.88$
  Q  0.6645  17.06$  14.88$  9.52$
  Q  0.6645  16$  15.35$  10.52$
  Q  -1.3290  16.28$  15.12$  9.79$
  Q  0.6645  15.31$  9.23$  1.19$
  Q  0.6645  15.25$  8.5$  -0.15$
  Q  -1.3290  15.61$  8.98$  0.46$
  Q  0.6645  11.73$  8.64$  16.01$
  Q  0.6645  11.46$  7.16$  16.47$
  Q  -1.3290  11.89$  7.8$  16.09$
  Q  0.6645  7.96$  20.7$  15.23$
  Q  0.6645  8.7$  21.87$  14.82$
  Q  -1.3290  8.67$  21.08$  15.05$
  Q  0.6645  8.94$  15.88$  7.11$
  Q  0.6645  8.42$  17.07$  6.23$
  Q  -1.3290  8.96$  16.48$  6.51$
  Q  0.6645  2.22$  12.89$  5.92$
  Q  0.6645  3.74$  13.21$  5.88$
  Q  -1.3290  3.03$  12.84$  6.18$
  Q  0.6645  3.31$  8.08$  18.65$
  Q  0.6645  2.12$  8.6$  18.03$
  Q  -1.3290  2.82$  8.69$  18.44$
  Q  0.6645  9.58$  2.72$  6.82$
  Q  0.6645  9.87$  2.67$  5.39$
  Q  -1.3290  9.44$  2.5$  6.05$
  Q  0.6645  3.63$  12.27$  15.45$
  Q  0.6645  3.43$  13.85$  15.51$
  Q  -1.3290  3.51$  13.07$  15.11$
  Q  0.6645  17.9$  13.41$  16.42$
  Q  0.6645  17.4$  12.43$  15.26$
  Q  -1.3290  17.65$  13.18$  15.63$
  Q  0.6645  5.63$  17.14$  17.1$
  Q  0.6645  7.08$  17.09$  16.58$
  Q  -1.3290  6.43$  16.82$  17.08$
  Q  0.6645  13.01$  9.4$  20.1$
  Q  0.6645  12.28$  10.72$  20.06$
  Q  -1.3290  12.35$  9.87$  20.21$
  Q  0.6645  7.61$  11.04$  18.23$
  Q  0.6645  8.51$  10.55$  19.4$
  Q  -1.3290  8.13$  11.1$  18.88$
  Q  0.6645  10.92$  2.58$  2.75$
  Q  0.6645  10.73$  3.84$  3.53$
  Q  -1.3290  10.94$  3.03$  3.46$
  Q  0.6645  3.53$  5.51$  10.89$
  Q  0.6645  4.34$  4.22$  11.07$
  Q  -1.3290  3.7$  4.75$  11.18$
  Q  0.6645  14.83$  15.06$  13.66$
  Q  0.6645  15.06$  16.52$  13.16$
  Q  -1.3290  15.04$  15.66$  13.09$
  Q  0.6645  4.9$  5.65$  4.6$
  Q  0.6645  6.25$  4.89$  4.15$
  Q  -1.3290  5.5$  5.31$  4.05$
  Q  0.6645  4.92$  10.6$  7.78$
  Q  0.6645  3.97$  9.5$  7.47$
  Q  -1.3290  4.39$  10.02$  7.97$
  Q  0.6645  11.03$  1.43$  11.61$
  Q  0.6645  11.59$  1.01$  13.02$
  Q  -1.3290  11.11$  0.92$  12.34$
  Q  0.6645  7.33$  8.05$  5.79$
  Q  0.6645  6.46$  9.36$  5.9$
  Q  -1.3290  6.63$  8.52$  5.94$
  Q  0.6645  12.91$  3.77$  4.1$
  Q  0.6645  13.63$  4.62$  3.21$
  Q  -1.3290  13.53$  4.23$  3.92$
  Q  0.6645  15.42$  5.56$  6.82$
  Q  0.6645  15.11$  4.94$  5.33$
  Q  -1.3290  15.13$  5.53$  6$
  Q  0.6645  18.83$  18.67$  14.4$
  Q  0.6645  18.1$  17.62$  13.56$
  Q  -1.3290  18.23$  18.38$  13.84$
  Q  0.6645  7.83$  20.49$  8.96$
  Q  0.6645  7.8$  21.9$  8.98$
  Q  -1.3290  7.51$  21.2$  8.74$
  Q  0.6645  13.19$  7.17$  2.26$
  Q  0.6645  12.76$  5.95$  1.31$
  Q  -1.3290  13.22$  6.37$  1.91$
  Q  0.6645  17.13$  2.46$  6.25$
  Q  0.6645  16.65$  3.59$  7.15$
  Q  -1.3290  16.65$  2.82$  6.85$
  Q  0.6645  9.4$  6.61$  15.45$
  Q  0.6645  10.52$  6.94$  14.38$
  Q  -1.3290  9.87$  6.46$  14.74$
  Q  0.6645  6.81$  1.41$  12.33$
  Q  0.6645  5.35$  1.44$  12.68$
  Q  -1.3290  6$  1.27$  12.19$
  Q  0.6645  8.53$  6.75$  13.24$
  Q  0.6645  7.03$  6.67$  12.62$
  Q  -1.3290  7.92$  6.56$  12.67$
  Q  0.6645  18.55$  8.21$  13.77$
  Q  0.6645  19.95$  8.55$  13.49$
  Q  -1.3290  19.27$  8.53$  13.96$
  Q  0.6645  11.69$  19.29$  15.29$
  Q  0.6645  12.97$  18.44$  15.14$
  Q  -1.3290  12.15$  18.61$  15.03$
  Q  0.6645  13.2$  4.19$  14.92$
  Q  0.6645  11.77$  3.5$  14.9$
  Q  -1.3290  12.56$  3.69$  15.2$
  Q  0.6645  14.9$  12.19$  2.75$
  Q  0.6645  14.28$  11.94$  1.3$
  Q  -1.3290  14.31$  11.94$  2.18$
  Q  0.6645  6.36$  21.16$  13.5$
  Q  0.6645  5.8$  20.15$  14.26$
  Q  -1.3290  6.1$  20.89$  14.2$
  Q  0.6645  7.58$  3.88$  16.09$
  Q  0.6645  7.91$  2.66$  16.93$
  Q  -1.3290  7.93$  3.49$  16.74$
  Q  0.6645  10.33$  9.22$  5.82$
  Q  0.6645  10.87$  9.76$  4.46$
  Q  -1.3290  10.88$  9.61$  5.3$
  Q  0.6645  13.75$  17.23$  17.19$
  Q  0.6645  14.98$  17.22$  16.19$
  Q  -1.3290  14.55$  17.39$  16.91$
  Q  0.6645  15.04$  12.61$  17.51$
  Q  0.6645  13.88$  13.01$  18.35$
  Q  -1.3290  14.61$  13.14$  17.98$
  Q  0.6645  6.38$  13.1$  21.12$
  Q  0.6645  7.57$  12.48$  20.45$
  Q  -1.3290  7.2$  12.91$  21.05$
  Q  0.6645  11.16$  21.16$  9.17$
  Q  0.6645  9.9$  20.72$  9.94$
  Q  -1.3290  10.4$  20.8$  9.28$
  Q  0.6645  8.09$  4.44$  18.49$
  Q  0.6645  7.64$  5.48$  19.51$
  Q  -1.3290  8.12$  4.86$  19.21$
  Q  0.6645  15.63$  4.98$  10.88$
  Q  0.6645  17.12$  4.73$  10.87$
  Q  -1.3290  16.42$  5.14$  10.63$
  Q  0.6645  17.44$  10.86$  12.98$
  Q  0.6645  18.49$  10.23$  13.83$
  Q  -1.3290  18.01$  10.85$  13.56$
  Q  0.6645  7.18$  18.58$  4.57$
  Q  0.6645  6.99$  19.09$  6.03$
  Q  -1.3290  7.32$  18.61$  5.42$
  Q  0.6645  7.55$  5.53$  14.46$
  Q  0.6645  5.97$  5.42$  14.66$
  Q  -1.3290  6.78$  5.44$  14.89$
  Q  0.6645  8.39$  6.89$  17.46$
  Q  0.6645  9.42$  6.19$  18.32$
  Q  -1.3290  9.16$  6.74$  17.74$
*
