! NoMOPrint PrintBasis #MINIPRINT SMALLPRINT LARGEPRINT
! ALLPOP XYZFILE
#! BP86 3-21G   TightSCF
! ENGRAD
! B3LYP NormalPNO PModel #DecontractAux
#! VerySlowConv 
 %maxcore 5000
 %scf  maxiter   500  end 

%pal
    nprocs 32
end

%basis
    NewGTO O    # New basis for oxygen
        "aug-cc-pVTZ"
    end
    NewGTO C    # New basis for carbon
        "aug-cc-pVTZ"
    end
    NewGTO H    # New basis for hydrogen
        "cc-pVTZ"
    end
end

* xyz 0   1
  C  9.19  11.47  12.09  #1
  H  8.6  10.83  12.76  #2
  H  8.54  12.24  11.63  #3
  C  9.79  10.6  10.91  #4
  H  10.28  9.63  11.27  #5
  H  8.91  10.26  10.42  #6
  C  10.67  11.44  10  #7
  H  11.18  12.26  10.5  #8
  H  10.06  11.84  9.18  #9
  C  11.76  10.54  9.37  #10
  H  11.39  9.76  8.72  #11
  H  12.27  10.04  10.09  #12
  O  12.7  11.35  8.56  #13
  H  13.35  10.82  8.13  #14
  O  10.28  12.13  12.86  #15
  H  9.96  12.23  13.77  #16
  O  10.16  12.1  15.57  #17
  H  10.69  11.3  15.61  #18
  H  10.62  12.85  16.04  #19
  O  14.08  7.83  10.59  #20
  H  14.61  8.64  10.39  #21
  H  13.62  7.68  9.74  #22
  O  12  7.04  8.65  #23
  H  11.97  6.14  8.26  #24
  H  11.27  6.78  9.18  #25
  O  7.82  7.58  10.66  #26
  H  8.57  6.99  10.44  #27
  H  7.3  8  9.95  #28
  O  11.34  15.2  9.38  #29
  H  11.91  14.65  8.82  #30
  H  11.59  15.13  10.34  #31
  O  6.74  14.07  11.43  #32
  H  5.96  13.56  11.22  #33
  H  6.41  14.97  11.72  #34
  O  15.41  8.32  7.54  #35
  H  15.03  7.5  7.84  #36
  H  16.36  8.23  7.49  #37
  O  11.41  9.12  6.46  #38
  H  11.48  8.82  5.45  #39
  H  11.65  8.34  7.09  #40
  O  7.84  13.82  8.47  #41
  H  7.57  13.23  7.71  #42
  H  7.91  13.3  9.28  #43
  O  7.43  13.36  14.76  #44
  H  6.92  13.05  15.53  #45
  H  8.37  13.29  14.99  #46
  O  12.93  12.05  13.45  #47
  H  13.47  12.28  12.66  #48
  H  12.03  12.04  13.14  #49
  O  9.82  5.78  9.98  #50
  H  9.93  5.3  10.81  #51
  H  9.37  5.24  9.32  #52
  O  11.5  9.31  15.45  #53
  H  12.33  9.55  15.05  #54
  H  10.98  8.67  14.9  #55
  O  12.51  4.72  7.28  #56
  H  12.44  5.17  6.44  #57
  H  12.11  3.91  7  #58
  O  14.58  12.35  11.37  #59
  H  14.65  11.67  10.65  #60
  H  14.78  13.14  10.94  #61
  O  12.24  17.74  8.7  #62
  H  11.89  18.03  7.88  #63
  H  11.83  16.88  8.97  #64
  O  13.21  13.77  8.06  #65
  H  12.84  13.95  7.18  #66
  H  13.01  12.84  8.34  #67
  O  12.87  6.52  13.1  #68
  H  13.07  7.06  12.29  #69
  H  13.32  7.02  13.75  #70
  O  6.24  4.72  10.39  #71
  H  6.76  4.21  9.7  #72
  H  6.7  5.59  10.55  #73
  O  6.43  10.95  13.27  #74
  H  6.68  11.81  13.57  #75
  H  5.9  11.1  12.51  #76
  O  15.51  10.07  9.91  #77
  H  16.26  10.11  10.46  #78
  H  15.83  9.83  9.04  #79
  O  12.06  14.04  16.73  #80
  H  12.21  14.31  17.65  #81
  H  11.51  14.71  16.27  #82
  O  6.6  8.09  13.13  #83
  H  7.08  7.97  12.28  #84
  H  6.69  9.01  13.45  #85
  O  6.36  8.89  8.76  #86
  H  5.9  9.43  9.45  #87
  H  5.69  8.62  8.1  #88
  O  10.98  14.62  6.68  #89
  H  10.51  14.77  7.5  #90
  H  10.51  15.24  6.07  #91
  O  15.49  5.34  8.79  #92
  H  16.4  5.14  8.55  #93
  H  15.61  6.05  9.38  #94
  O  9.12  15.11  12.57  #95
  H  8.38  14.5  12.39  #96
  H  9.98  14.64  12.43  #97
  O  13.98  10.35  6.4  #98
  H  14.58  9.63  6.52  #99
  H  13.06  10.03  6.41  #100
  O  8.13  10.29  16.91  #101
  H  8.52  11.16  16.78  #102
  H  8.55  9.77  16.23  #103
  O  11.93  14.86  12.27  #104
  H  11.96  15.84  12.49  #105
  H  12.49  14.39  12.89  #106
  O  12.83  4.17  10.1  #107
  H  11.92  3.88  10.21  #108
  H  12.98  4.59  9.22  #109
  Q  0.6645  4.52$  18.36$  11.63$
  Q  0.6645  4.36$  19.74$  12.22$
  Q  -1.3290  4.08$  19.05$  11.86$
  Q  0.6645  13.33$  13.36$  4.73$
  Q  0.6645  13.81$  14.67$  5.25$
  Q  -1.3290  13.9$  13.89$  5.02$
  Q  0.6645  3.38$  3.84$  10.16$
  Q  0.6645  4.35$  4.96$  10.62$
  Q  -1.3290  3.6$  4.59$  10.48$
  Q  0.6645  4.28$  7.05$  15.5$
  Q  0.6645  5.01$  6.78$  16.79$
  Q  -1.3290  4.43$  7.13$  16.31$
  Q  0.6645  1.61$  7.23$  7.02$
  Q  0.6645  2.05$  7.36$  8.47$
  Q  -1.3290  2.03$  7.59$  7.66$
  Q  0.6645  20.58$  15.11$  6.99$
  Q  0.6645  19.51$  14.83$  5.91$
  Q  -1.3290  20.21$  15.17$  6.21$
  Q  0.6645  2.86$  9.86$  14.14$
  Q  0.6645  3.26$  8.28$  13.76$
  Q  -1.3290  2.83$  9.06$  13.74$
  Q  0.6645  9.86$  15.12$  2.41$
  Q  0.6645  8.65$  15.81$  1.76$
  Q  -1.3290  9.36$  15.78$  2.25$
  Q  0.6645  -0.34$  11.55$  6.02$
  Q  0.6645  0.88$  11.45$  7.02$
  Q  -1.3290  0.18$  11.82$  6.66$
  Q  0.6645  20.13$  13.64$  9.77$
  Q  0.6645  20.23$  12.21$  9.97$
  Q  -1.3290  20.22$  12.98$  10.24$
  Q  0.6645  12.73$  11.71$  3.65$
  Q  0.6645  11.39$  12.28$  3.98$
  Q  -1.3290  12.16$  12.32$  3.69$
  Q  0.6645  1.89$  16.95$  15.05$
  Q  0.6645  3.01$  16.51$  16.04$
  Q  -1.3290  2.32$  16.97$  15.77$
  Q  0.6645  5.37$  16.73$  10.17$
  Q  0.6645  6.6$  17.4$  10.8$
  Q  -1.3290  5.82$  17.09$  10.79$
  Q  0.6645  19.83$  6.55$  11.95$
  Q  0.6645  21.17$  5.92$  12.64$
  Q  -1.3290  20.66$  6.52$  12.3$
  Q  0.6645  14.1$  12.33$  14.84$
  Q  0.6645  14.6$  12.19$  16.34$
  Q  -1.3290  14.52$  12$  15.51$
  Q  0.6645  5.56$  8.14$  3$
  Q  0.6645  6.85$  8.56$  2.64$
  Q  -1.3290  6.09$  8.47$  2.47$
  Q  0.6645  5.24$  13.45$  17.13$
  Q  0.6645  6.06$  12.4$  17.79$
  Q  -1.3290  5.69$  12.76$  17.15$
  Q  0.6645  11.64$  6.17$  17.87$
  Q  0.6645  11.49$  4.68$  17.86$
  Q  -1.3290  11.22$  5.46$  17.86$
  Q  0.6645  14.03$  3.7$  6.21$
  Q  0.6645  15.17$  4.28$  7.18$
  Q  -1.3290  14.81$  3.8$  6.56$
  Q  0.6645  10.22$  3.84$  2.93$
  Q  0.6645  9.97$  2.65$  3.74$
  Q  -1.3290  10.05$  3.46$  3.65$
  Q  0.6645  12.68$  1.02$  7.86$
  Q  0.6645  12.88$  -0.14$  9.01$
  Q  -1.3290  13.12$  0.44$  8.38$
  Q  0.6645  4.14$  9.79$  10.75$
  Q  0.6645  4.79$  11.13$  10.34$
  Q  -1.3290  4.82$  10.33$  10.65$
  Q  0.6645  7.84$  9.75$  6.43$
  Q  0.6645  9.38$  9.25$  6.43$
  Q  -1.3290  8.6$  9.52$  6.1$
  Q  0.6645  17.03$  12.84$  14.69$
  Q  0.6645  16.63$  12.05$  13.39$
  Q  -1.3290  17.11$  12.52$  13.88$
  Q  0.6645  19.9$  7.64$  13.93$
  Q  0.6645  18.9$  8.73$  14.51$
  Q  -1.3290  19.5$  8.13$  14.52$
  Q  0.6645  18.84$  7.29$  2.44$
  Q  0.6645  18.71$  8.1$  1.1$
  Q  -1.3290  18.49$  7.84$  1.88$
  Q  0.6645  5.34$  2.96$  13.41$
  Q  0.6645  5.91$  3.61$  12.19$
  Q  -1.3290  5.91$  3.4$  12.99$
  Q  0.6645  4.88$  11.81$  5.24$
  Q  0.6645  3.84$  11.54$  6.31$
  Q  -1.3290  4.44$  11.98$  5.95$
  Q  0.6645  16.79$  18.79$  3.52$
  Q  0.6645  15.6$  17.88$  3.6$
  Q  -1.3290  15.99$  18.59$  3.41$
  Q  0.6645  3.37$  13.56$  12.92$
  Q  0.6645  2.22$  12.59$  12.53$
  Q  -1.3290  2.9$  12.83$  12.92$
  Q  0.6645  9.11$  3.41$  14.06$
  Q  0.6645  7.76$  4.14$  13.62$
  Q  -1.3290  8.54$  4.04$  13.95$
  Q  0.6645  10.3$  15.9$  21.1$
  Q  0.6645  9.93$  14.46$  20.61$
  Q  -1.3290  10.35$  15.01$  21.09$
  Q  0.6645  6.57$  10.77$  7.85$
  Q  0.6645  6.03$  11.66$  6.98$
  Q  -1.3290  6.65$  11.36$  7.37$
  Q  0.6645  11.24$  1.98$  8.05$
  Q  0.6645  10.42$  2.13$  6.82$
  Q  -1.3290  11.15$  2.04$  7.24$
  Q  0.6645  15.01$  10.12$  17.3$
  Q  0.6645  15.73$  8.9$  17.78$
  Q  -1.3290  15.57$  9.5$  17.21$
  Q  0.6645  17.02$  15.69$  7.48$
  Q  0.6645  16.54$  17$  8.32$
  Q  -1.3290  16.91$  16.2$  8.18$
  Q  0.6645  17.98$  3.59$  8.07$
  Q  0.6645  18.12$  4.39$  6.9$
  Q  -1.3290  18.02$  4.31$  7.72$
  Q  0.6645  5.28$  15.43$  7.95$
  Q  0.6645  6.31$  14.81$  9.07$
  Q  -1.3290  5.61$  15.24$  8.73$
  Q  0.6645  8.34$  13.25$  18.8$
  Q  0.6645  8.82$  14.56$  18.26$
  Q  -1.3290  8.93$  13.8$  18.58$
  Q  0.6645  2.4$  16.29$  9.07$
  Q  0.6645  2.07$  17.13$  10.28$
  Q  -1.3290  2.37$  16.46$  9.89$
  Q  0.6645  8.98$  5.2$  15.59$
  Q  0.6645  9.41$  5.46$  16.89$
  Q  -1.3290  8.9$  5.57$  16.3$
  Q  0.6645  16.42$  6.87$  1.81$
  Q  0.6645  16.21$  5.38$  2.32$
  Q  -1.3290  16.02$  6.11$  1.89$
  Q  0.6645  8.21$  17.27$  20.89$
  Q  0.6645  6.73$  17.58$  21.29$
  Q  -1.3290  7.38$  17.09$  21.01$
  Q  0.6645  6.84$  15.14$  14.15$
  Q  0.6645  6.32$  16.62$  14.1$
  Q  -1.3290  6.33$  15.79$  13.93$
  Q  0.6645  16.39$  13.12$  8.71$
  Q  0.6645  15.21$  13.48$  7.8$
  Q  -1.3290  15.98$  13.21$  7.99$
  Q  0.6645  12.51$  16.52$  17.24$
  Q  0.6645  12.6$  16.98$  18.76$
  Q  -1.3290  12.21$  16.78$  18$
  Q  0.6645  20.68$  8.35$  11.45$
  Q  0.6645  19.43$  9.21$  11.78$
  Q  -1.3290  20.23$  9.06$  11.49$
  Q  0.6645  16.63$  12.71$  10.84$
  Q  0.6645  18.24$  12.83$  10.75$
  Q  -1.3290  17.43$  12.66$  10.49$
  Q  0.6645  2.02$  11.82$  3.48$
  Q  0.6645  3.45$  11.31$  3.13$
  Q  -1.3290  2.61$  11.25$  3.18$
  Q  0.6645  5.42$  16.51$  2.91$
  Q  0.6645  5.86$  15.2$  3.51$
  Q  -1.3290  5.85$  16.03$  3.48$
  Q  0.6645  3.19$  15.98$  5.18$
  Q  0.6645  2.02$  15.46$  4.45$
  Q  -1.3290  2.5$  16.06$  4.75$
  Q  0.6645  18.34$  13.97$  13.09$
  Q  0.6645  18.72$  15.06$  11.89$
  Q  -1.3290  18.6$  14.72$  12.7$
  Q  0.6645  10.65$  2.47$  17.69$
  Q  0.6645  11.64$  2.7$  16.56$
  Q  -1.3290  11.4$  2.66$  17.36$
  Q  0.6645  5.1$  7$  13.24$
  Q  0.6645  4.52$  5.67$  13.26$
  Q  -1.3290  4.51$  6.46$  13.47$
  Q  0.6645  8.43$  16.1$  5.95$
  Q  0.6645  8.75$  15.89$  4.52$
  Q  -1.3290  8.93$  16.17$  5.27$
  Q  0.6645  16.12$  10.6$  21.1$
  Q  0.6645  14.65$  11.12$  20.97$
  Q  -1.3290  15.38$  10.73$  20.7$
  Q  0.6645  5.42$  6.51$  6.94$
  Q  0.6645  4$  7.19$  7.3$
  Q  -1.3290  4.86$  7.16$  7.15$
  Q  0.6645  15.41$  19.81$  11.02$
  Q  0.6645  15.84$  20.91$  10.03$
  Q  -1.3290  15.83$  20.12$  10.37$
  Q  0.6645  9.38$  7.49$  15.49$
  Q  0.6645  8.47$  8.04$  14.24$
  Q  -1.3290  9.12$  8.03$  14.81$
  Q  0.6645  6.88$  5.36$  16.79$
  Q  0.6645  6.28$  5.37$  18.22$
  Q  -1.3290  6.3$  5.26$  17.39$
  Q  0.6645  14.73$  13.69$  3.39$
  Q  0.6645  15.41$  12.67$  2.62$
  Q  -1.3290  15.05$  13.39$  2.69$
  Q  0.6645  0.97$  8.45$  14.39$
  Q  0.6645  -0.45$  8.32$  15.02$
  Q  -1.3290  0.38$  8.42$  15.02$
  Q  0.6645  9.92$  15.48$  14.49$
  Q  0.6645  9.41$  15.9$  15.99$
  Q  -1.3290  9.96$  15.74$  15.35$
  Q  0.6645  17.9$  9.92$  7.21$
  Q  0.6645  18.92$  9.19$  8.11$
  Q  -1.3290  18.19$  9.26$  7.71$
  Q  0.6645  5.07$  7.78$  5.35$
  Q  0.6645  4.39$  6.7$  4.48$
  Q  -1.3290  4.63$  7.48$  4.67$
  Q  0.6645  21.55$  10.6$  12.43$
  Q  0.6645  22.11$  10.59$  13.76$
  Q  -1.3290  21.85$  10.96$  13.09$
  Q  0.6645  11.3$  1.65$  10.55$
  Q  0.6645  9.88$  1.94$  10.53$
  Q  -1.3290  10.65$  2.03$  10.24$
  Q  0.6645  12.94$  6.28$  0.4$
  Q  0.6645  13.95$  6.45$  1.51$
  Q  -1.3290  13.3$  6.68$  1.05$
  Q  0.6645  6.47$  9.53$  17.91$
  Q  0.6645  5.17$  8.7$  17.59$
  Q  -1.3290  5.71$  9.13$  18.07$
  Q  0.6645  12.08$  17.61$  1.32$
  Q  0.6645  11.88$  16.05$  1.56$
  Q  -1.3290  12.3$  16.77$  1.35$
  Q  0.6645  15.31$  18.68$  17.08$
  Q  0.6645  14.28$  17.71$  16.46$
  Q  -1.3290  14.7$  18.44$  16.54$
  Q  0.6645  5.55$  21.51$  13.36$
  Q  0.6645  6.44$  20.38$  13.03$
  Q  -1.3290  5.85$  20.94$  12.87$
  Q  0.6645  17.66$  13.09$  0.47$
  Q  0.6645  18.18$  14.16$  1.49$
  Q  -1.3290  17.95$  13.83$  0.71$
  Q  0.6645  0.86$  11.94$  10.22$
  Q  0.6645  1.33$  10.45$  10.26$
  Q  -1.3290  1.08$  11.19$  9.89$
  Q  0.6645  8.01$  11.26$  0.51$
  Q  0.6645  9.24$  11.97$  1.17$
  Q  -1.3290  8.5$  11.54$  1.18$
  Q  0.6645  4.73$  14.26$  5.73$
  Q  0.6645  5.3$  15.69$  5.21$
  Q  -1.3290  4.92$  15.13$  5.77$
  Q  0.6645  3.41$  11.95$  14.6$
  Q  0.6645  4.07$  11.32$  15.79$
  Q  -1.3290  3.44$  11.42$  15.24$
  Q  0.6645  3.77$  15.56$  11.75$
  Q  0.6645  4.6$  15.36$  13.04$
  Q  -1.3290  3.88$  15.3$  12.55$
  Q  0.6645  16.86$  10.51$  3.34$
  Q  0.6645  17.76$  9.58$  2.53$
  Q  -1.3290  17.57$  10.3$  2.93$
  Q  0.6645  2.54$  10.99$  8.28$
  Q  0.6645  2.65$  9.62$  7.51$
  Q  -1.3290  2.67$  10.46$  7.6$
  Q  0.6645  13.65$  12.35$  18.42$
  Q  0.6645  14.98$  11.96$  18.99$
  Q  -1.3290  14.46$  12.07$  18.37$
  Q  0.6645  7.02$  18.16$  5.98$
  Q  0.6645  5.84$  18.11$  7$
  Q  -1.3290  6.58$  17.86$  6.65$
  Q  0.6645  15.39$  15.07$  2.03$
  Q  0.6645  14.67$  16.36$  1.81$
  Q  -1.3290  15.32$  15.86$  1.77$
  Q  0.6645  12.98$  3.14$  3.6$
  Q  0.6645  13.09$  4.47$  3.98$
  Q  -1.3290  13.38$  3.81$  3.61$
  Q  0.6645  2.12$  15.78$  13.27$
  Q  0.6645  0.61$  15.14$  13.44$
  Q  -1.3290  1.24$  15.77$  13.31$
  Q  0.6645  16.09$  4.43$  11.67$
  Q  0.6645  16.5$  4.7$  13.17$
  Q  -1.3290  16.61$  4.64$  12.34$
  Q  0.6645  17.92$  10.96$  14.95$
  Q  0.6645  17.17$  10.11$  15.98$
  Q  -1.3290  17.84$  10.38$  15.55$
  Q  0.6645  20.26$  9.96$  4.77$
  Q  0.6645  19.86$  11.03$  3.78$
  Q  -1.3290  20.38$  10.64$  4.31$
  Q  0.6645  3.87$  19.35$  6.65$
  Q  0.6645  3.77$  19.3$  8.09$
  Q  -1.3290  4.08$  19.07$  7.37$
  Q  0.6645  13.27$  19.69$  17.19$
  Q  0.6645  12.98$  21.1$  17.92$
  Q  -1.3290  12.79$  20.4$  17.42$
  Q  0.6645  8.34$  6.55$  19.41$
  Q  0.6645  7.07$  6.5$  20.34$
  Q  -1.3290  7.64$  6.21$  19.78$
  Q  0.6645  8.5$  0.88$  6.97$
  Q  0.6645  7.66$  1.92$  6.23$
  Q  -1.3290  8.36$  1.59$  6.56$
  Q  0.6645  2.06$  8.44$  10.51$
  Q  0.6645  2.46$  9.05$  11.85$
  Q  -1.3290  2.34$  9.04$  11.01$
  Q  0.6645  15.34$  1.53$  13.67$
  Q  0.6645  15.17$  2.99$  14.2$
  Q  -1.3290  14.95$  2.28$  13.82$
  Q  0.6645  0.31$  14.09$  9.13$
  Q  0.6645  0.13$  13.54$  7.6$
  Q  -1.3290  0.16$  14.1$  8.29$
  Q  0.6645  13.46$  8.76$  1.58$
  Q  0.6645  13.13$  10.27$  1.25$
  Q  -1.3290  13.31$  9.58$  1.7$
  Q  0.6645  8.21$  20.35$  14.47$
  Q  0.6645  8.55$  19.44$  13.15$
  Q  -1.3290  8.1$  19.78$  13.81$
  Q  0.6645  5.13$  15.94$  17.01$
  Q  0.6645  5.17$  15.38$  15.66$
  Q  -1.3290  4.8$  15.61$  16.34$
  Q  0.6645  16.84$  13.87$  6.61$
  Q  0.6645  16.93$  15.04$  5.5$
  Q  -1.3290  17.22$  14.44$  6.04$
  Q  0.6645  3.71$  10.8$  20.37$
  Q  0.6645  4.48$  10.57$  19.04$
  Q  -1.3290  4.17$  11.01$  19.7$
  Q  0.6645  19.52$  13.65$  3.65$
  Q  0.6645  18.07$  13.88$  4.3$
  Q  -1.3290  18.63$  13.73$  3.65$
  Q  0.6645  15.49$  19.14$  15.19$
  Q  0.6645  15.6$  19.2$  13.72$
  Q  -1.3290  15.85$  19.35$  14.49$
  Q  0.6645  8.18$  3.87$  4.03$
  Q  0.6645  6.69$  3.43$  4.04$
  Q  -1.3290  7.35$  3.95$  3.89$
  Q  0.6645  7.86$  0.92$  15.01$
  Q  0.6645  7.31$  2.12$  14.25$
  Q  -1.3290  7.88$  1.49$  14.43$
  Q  0.6645  14.65$  7.81$  15.77$
  Q  0.6645  15.28$  8.43$  14.52$
  Q  -1.3290  14.77$  7.9$  14.95$
  Q  0.6645  15.12$  7.41$  19.79$
  Q  0.6645  14.9$  8.79$  19.91$
  Q  -1.3290  14.83$  8.08$  19.52$
  Q  0.6645  1.3$  14.63$  11.09$
  Q  0.6645  0.11$  13.65$  11.44$
  Q  -1.3290  0.87$  13.9$  11.07$
  Q  0.6645  14.42$  10.24$  13.38$
  Q  0.6645  15.33$  10.51$  14.4$
  Q  -1.3290  15.14$  10.2$  13.69$
  Q  0.6645  3.23$  12.95$  10.3$
  Q  0.6645  4.31$  13.67$  9.54$
  Q  -1.3290  3.97$  13.02$  9.94$
  Q  0.6645  7.46$  9.21$  20.42$
  Q  0.6645  8.88$  9.35$  19.9$
  Q  -1.3290  8.17$  9.63$  20.25$
  Q  0.6645  11.6$  13.4$  2.08$
  Q  0.6645  10.76$  14.03$  0.85$
  Q  -1.3290  10.91$  13.61$  1.6$
  Q  0.6645  10.55$  8.06$  18.14$
  Q  0.6645  9.3$  8.83$  17.8$
  Q  -1.3290  9.79$  8.32$  18.28$
  Q  0.6645  10.35$  12.52$  5.89$
  Q  0.6645  9.69$  11.25$  5.55$
  Q  -1.3290  9.97$  12.02$  5.4$
  Q  0.6645  8.35$  3.27$  7.96$
  Q  0.6645  7.52$  4.51$  7.69$
  Q  -1.3290  8.01$  3.99$  8.15$
  Q  0.6645  0.16$  10.67$  16.69$
  Q  0.6645  1.61$  11.07$  16.26$
  Q  -1.3290  0.95$  10.92$  16.81$
  Q  0.6645  16.15$  5.07$  15.46$
  Q  0.6645  15.04$  5.58$  14.54$
  Q  -1.3290  15.54$  5$  14.9$
  Q  0.6645  7.36$  11.4$  19.88$
  Q  0.6645  5.92$  11.89$  19.91$
  Q  -1.3290  6.75$  12.02$  19.81$
  Q  0.6645  11.81$  19.75$  11.84$
  Q  0.6645  11.84$  20.05$  13.43$
  Q  -1.3290  11.89$  19.58$  12.69$
  Q  0.6645  20.69$  5.49$  8.9$
  Q  0.6645  19.34$  5.59$  8.55$
  Q  -1.3290  20.03$  5.91$  8.85$
  Q  0.6645  15.47$  15.46$  12.5$
  Q  0.6645  15.93$  15.46$  13.9$
  Q  -1.3290  15.4$  15.68$  13.28$
  Q  0.6645  8.65$  17.23$  17.63$
  Q  0.6645  7.39$  16.37$  17.68$
  Q  -1.3290  8.16$  16.52$  17.48$
  Q  0.6645  14.9$  2.79$  11.84$
  Q  0.6645  14.54$  3.57$  10.5$
  Q  -1.3290  15.03$  3.05$  11.03$
  Q  0.6645  9.94$  19.3$  17.12$
  Q  0.6645  10.66$  17.99$  17.73$
  Q  -1.3290  10.04$  18.62$  17.67$
  Q  0.6645  16.24$  15.18$  10.05$
  Q  0.6645  14.81$  15.15$  9.83$
  Q  -1.3290  15.46$  14.96$  10.26$
  Q  0.6645  5.06$  15.09$  19.21$
  Q  0.6645  6.41$  16.03$  19.63$
  Q  -1.3290  5.83$  15.56$  19.12$
  Q  0.6645  11.31$  2.24$  13.99$
  Q  0.6645  10.06$  1.59$  14.55$
  Q  -1.3290  10.7$  2.11$  14.56$
  Q  0.6645  11.95$  14.31$  19.99$
  Q  0.6645  13.43$  14.48$  19.84$
  Q  -1.3290  12.69$  14.16$  19.69$
  Q  0.6645  6.65$  13.72$  21.18$
  Q  0.6645  7.46$  15.04$  21.6$
  Q  -1.3290  7.02$  14.27$  21.72$
  Q  0.6645  13.22$  16.97$  5.08$
  Q  0.6645  12.41$  16.15$  6.21$
  Q  -1.3290  13.02$  16.33$  5.65$
  Q  0.6645  7.85$  12.79$  2.72$
  Q  0.6645  8.2$  13.03$  4.12$
  Q  -1.3290  7.74$  13.1$  3.47$
  Q  0.6645  7.76$  16.85$  8.07$
  Q  0.6645  8.52$  15.42$  8.13$
  Q  -1.3290  8.43$  16.29$  8.18$
  Q  0.6645  10.26$  18.82$  2.89$
  Q  0.6645  9.37$  17.61$  2.92$
  Q  -1.3290  9.52$  18.46$  2.84$
  Q  0.6645  7.47$  6.12$  6$
  Q  0.6645  6.55$  4.94$  5.6$
  Q  -1.3290  6.91$  5.5$  6.14$
  Q  0.6645  12.2$  8.57$  3.15$
  Q  0.6645  10.68$  8.23$  3.06$
  Q  -1.3290  11.43$  8.33$  3.43$
  Q  0.6645  20.31$  10.01$  9.71$
  Q  0.6645  21.06$  10.68$  8.45$
  Q  -1.3290  20.4$  10.39$  8.92$
  Q  0.6645  16.62$  17.63$  5.46$
  Q  0.6645  15.41$  16.77$  6.05$
  Q  -1.3290  16.04$  16.98$  5.49$
  Q  0.6645  18.3$  10.12$  -0.02$
  Q  0.6645  17.48$  10.72$  1.11$
  Q  -1.3290  17.7$  10.61$  0.32$
  Q  0.6645  18.6$  6.57$  10.26$
  Q  0.6645  17.95$  5.83$  11.43$
  Q  -1.3290  18.26$  6.49$  11.01$
  Q  0.6645  2.74$  5.95$  15.96$
  Q  0.6645  1.56$  6.92$  15.7$
  Q  -1.3290  1.97$  6.19$  15.71$
  Q  0.6645  16.16$  15.2$  15.94$
  Q  0.6645  17.5$  14.76$  16.23$
  Q  -1.3290  16.75$  14.68$  15.84$
  Q  0.6645  9.84$  18.15$  5.85$
  Q  0.6645  9.55$  19.39$  7.02$
  Q  -1.3290  9.95$  18.89$  6.35$
  Q  0.6645  10.06$  4.52$  12.74$
  Q  0.6645  11.38$  5.13$  12.77$
  Q  -1.3290  10.83$  4.63$  12.47$
  Q  0.6645  2.85$  4.08$  13.9$
  Q  0.6645  2.98$  4.13$  12.27$
  Q  -1.3290  3.08$  3.85$  13.1$
  Q  0.6645  12.87$  12.71$  21.23$
  Q  0.6645  13.87$  12.68$  22.34$
  Q  -1.3290  13.33$  12.34$  21.81$
  Q  0.6645  18.31$  15.95$  9.53$
  Q  0.6645  19.69$  16.21$  10.24$
  Q  -1.3290  18.98$  15.79$  10.05$
  Q  0.6645  6.14$  11.93$  3.35$
  Q  0.6645  5.77$  10.44$  3.41$
  Q  -1.3290  5.66$  11.26$  3.53$
  Q  0.6645  7.54$  1$  11.12$
  Q  0.6645  8.29$  1.37$  12.31$
  Q  -1.3290  8.23$  1.17$  11.53$
  Q  0.6645  7.74$  18.78$  3.99$
  Q  0.6645  6.5$  17.94$  4.07$
  Q  -1.3290  6.95$  18.64$  4.15$
  Q  0.6645  16.52$  11.89$  6.8$
  Q  0.6645  17.04$  11.58$  5.41$
  Q  -1.3290  16.9$  11.44$  6.21$
  Q  0.6645  15.47$  3.65$  3.46$
  Q  0.6645  16.63$  3.29$  2.65$
  Q  -1.3290  16.26$  3.7$  3.25$
  Q  0.6645  8.85$  17.25$  10.2$
  Q  0.6645  8.7$  16.98$  11.6$
  Q  -1.3290  8.72$  17.5$  10.96$
  Q  0.6645  17.71$  8.06$  11.92$
  Q  0.6645  16.64$  9.07$  12.39$
  Q  -1.3290  17.4$  8.79$  12.2$
  Q  0.6645  5.55$  18.44$  15.19$
  Q  0.6645  7.09$  18.45$  14.89$
  Q  -1.3290  6.37$  18.19$  15.28$
  Q  0.6645  19.48$  7.94$  6.69$
  Q  0.6645  19.8$  7.44$  5.14$
  Q  -1.3290  19.88$  7.91$  5.88$
  Q  0.6645  12.64$  19.42$  5.19$
  Q  0.6645  13.96$  19.17$  4.67$
  Q  -1.3290  13.14$  19$  4.72$
  Q  0.6645  14.46$  10.3$  3.16$
  Q  0.6645  14.65$  10.64$  4.59$
  Q  -1.3290  14.87$  10.67$  3.81$
  Q  0.6645  2.29$  6.14$  10.01$
  Q  0.6645  0.76$  6.3$  10.46$
  Q  -1.3290  1.54$  6.55$  10.18$
  Q  0.6645  6.34$  18.78$  17.04$
  Q  0.6645  6.6$  19.82$  18.13$
  Q  -1.3290  6.29$  19.12$  17.86$
  Q  0.6645  13.81$  15.15$  16.44$
  Q  0.6645  13.82$  16.08$  15.22$
  Q  -1.3290  13.99$  15.86$  15.98$
  Q  0.6645  2.76$  13.96$  18.52$
  Q  0.6645  3.6$  12.81$  19.01$
  Q  -1.3290  3.47$  13.62$  18.89$
  Q  0.6645  14.81$  17.75$  12.62$
  Q  0.6645  13.62$  18.74$  12.45$
  Q  -1.3290  14.43$  18.51$  12.46$
  Q  0.6645  12.28$  17.74$  13.79$
  Q  0.6645  11.65$  16.58$  14.67$
  Q  -1.3290  12.23$  16.95$  14.12$
  Q  0.6645  1.87$  9.24$  17.94$
  Q  0.6645  2.92$  8.05$  17.57$
  Q  -1.3290  2.38$  8.53$  18.07$
  Q  0.6645  11.99$  2.72$  12.15$
  Q  0.6645  13.15$  1.92$  13.12$
  Q  -1.3290  12.4$  2.07$  12.62$
  Q  0.6645  8.64$  9.68$  2.62$
  Q  0.6645  8.66$  9.2$  4.06$
  Q  -1.3290  8.68$  9.1$  3.24$
  Q  0.6645  14.19$  18.04$  8.24$
  Q  0.6645  15.3$  19.03$  8.77$
  Q  -1.3290  14.98$  18.43$  8.28$
  Q  0.6645  11.15$  20.53$  10.12$
  Q  0.6645  12.18$  19.43$  9.58$
  Q  -1.3290  11.92$  20.19$  9.91$
  Q  0.6645  12.72$  7.92$  16.73$
  Q  0.6645  13.31$  7.61$  18.14$
  Q  -1.3290  12.88$  7.47$  17.42$
  Q  0.6645  3.2$  18.63$  15.27$
  Q  0.6645  3.66$  18.84$  13.8$
  Q  -1.3290  3.74$  18.89$  14.66$
  Q  0.6645  2.83$  8.24$  4.25$
  Q  0.6645  2.01$  9.41$  3.86$
  Q  -1.3290  2.11$  8.63$  4.04$
  Q  0.6645  11.4$  6.48$  4.53$
  Q  0.6645  11.14$  4.99$  4.76$
  Q  -1.3290  11.59$  5.7$  4.75$
  Q  0.6645  9.21$  19.77$  10.8$
  Q  0.6645  9.13$  21.38$  10.97$
  Q  -1.3290  9.47$  20.6$  10.77$
*
