! NoMOPrint PrintBasis #MINIPRINT SMALLPRINT LARGEPRINT
! ALLPOP XYZFILE
#! BP86 3-21G   TightSCF
! ENGRAD
! B3LYP NormalPNO PModel #DecontractAux
#! VerySlowConv 
 %maxcore 5000
 %scf  maxiter   500  end 

%pal
    nprocs 32
end

%basis
    NewGTO O    # New basis for oxygen
        "aug-cc-pVTZ"
    end
    NewGTO C    # New basis for carbon
        "aug-cc-pVTZ"
    end
    NewGTO H    # New basis for hydrogen
        "cc-pVTZ"
    end
end

* xyz 0   1
  C  11.08  12.37  12.02  #1
  H  10.95  11.63  12.81  #2
  H  10.57  13.29  12.28  #3
  C  10.43  11.94  10.73  #4
  H  9.35  11.91  11.04  #5
  H  10.49  12.81  10.05  #6
  C  11.02  10.62  10.08  #7
  H  12.07  10.82  10.14  #8
  H  10.83  10.65  8.96  #9
  C  10.65  9.27  10.66  #10
  H  11.15  9.07  11.62  #11
  H  10.89  8.49  9.91  #12
  O  9.29  9.12  10.92  #13
  H  8.78  9.15  10.13  #14
  O  12.54  12.6  11.88  #15
  H  12.99  11.92  12.4  #16
  O  9.23  6.91  12.62  #17
  H  9.03  7.62  12  #18
  H  10.15  7.2  12.96  #19
  O  12.93  14.74  10.21  #20
  H  13.15  14.25  9.41  #21
  H  12.6  14.01  10.75  #22
  O  15.56  12.64  12.64  #23
  H  15.7  12.42  13.56  #24
  H  14.73  13.17  12.73  #25
  O  9.33  11.96  14.6  #26
  H  9.77  11.91  15.48  #27
  H  8.39  12.3  14.62  #28
  O  14.02  10.99  8.54  #29
  H  14.87  10.56  8.79  #30
  H  13.96  10.91  7.55  #31
  O  10.98  5.8  8.99  #32
  H  11.8  5.97  9.44  #33
  H  11.22  5.21  8.26  #34
  O  11.13  15.82  13.04  #35
  H  11.67  15.17  13.48  #36
  H  10.68  16.31  13.83  #37
  O  13.09  13.4  7.59  #38
  H  13.67  12.74  8.03  #39
  H  13.37  13.65  6.67  #40
  O  8.33  8.91  15.12  #41
  H  8.63  9.72  14.65  #42
  H  8.28  8.32  14.38  #43
  O  10.19  8.01  7.09  #44
  H  10.62  7.49  7.8  #45
  H  10.59  7.54  6.31  #46
  O  17.87  13.13  11.2  #47
  H  17.94  13.95  10.64  #48
  H  17  13.2  11.6  #49
  O  14.16  15.15  12.93  #50
  H  15.05  15.39  13.14  #51
  H  13.93  15.13  11.98  #52
  O  9.28  14.44  16.41  #53
  H  8.58  14.17  15.83  #54
  H  10.06  14.71  15.89  #55
  O  11.83  14.17  15.09  #56
  H  12.68  14.45  15.41  #57
  H  11.82  13.2  15.15  #58
  O  11.28  16.8  10.64  #59
  H  11.22  16.56  11.57  #60
  H  11.58  15.97  10.3  #61
  O  7.02  8.88  8.95  #62
  H  6.15  9.16  9.28  #63
  H  7.35  9.56  8.36  #64
  O  10.27  12.56  7.16  #65
  H  11.15  12.38  7.52  #66
  H  9.65  11.91  7.46  #67
  O  11.28  11.8  16.7  #68
  H  11.2  12.47  17.39  #69
  H  10.78  11.15  17.19  #70
  O  15.2  10.14  11.51  #71
  H  15.71  10.01  10.67  #72
  H  15.49  10.91  11.98  #73
  O  16.21  11.54  15.12  #74
  H  16.5  12.23  15.83  #75
  H  15.48  11.13  15.57  #76
  O  9.02  4.4  10.85  #77
  H  8.87  4.98  11.58  #78
  H  9.63  4.93  10.25  #79
  O  6.96  13.35  14.93  #80
  H  6.89  14.12  14.27  #81
  H  6.4  13.69  15.64  #82
  O  8.74  10.25  7.41  #83
  H  8.55  10.45  6.5  #84
  H  9.47  9.64  7.41  #85
  O  14.27  10.44  5.82  #86
  H  14.9  11.12  5.54  #87
  H  13.38  10.63  5.41  #88
  O  17.01  12.71  7.98  #89
  H  16.73  11.95  8.62  #90
  H  16.84  13.6  8.4  #91
  O  16.72  10.14  8.87  #92
  H  16.68  9.72  8  #93
  H  17.6  9.83  9.24  #94
  O  6.32  8.34  12.71  #95
  H  6.8  7.54  12.83  #96
  H  6.15  8.33  11.75  #97
  O  11.79  7.13  14.21  #98
  H  11.22  7.46  14.93  #99
  H  12.54  7.68  13.96  #100
  Q  0.6645  2.95$  12.08$  13.16$
  Q  0.6645  4.42$  11.74$  13.42$
  Q  -1.3290  3.68$  12.08$  13.61$
  Q  0.6645  7.81$  8.55$  0.98$
  Q  0.6645  7.19$  9.57$  0.04$
  Q  -1.3290  7.14$  8.92$  0.58$
  Q  0.6645  14.32$  21.01$  9.24$
  Q  0.6645  14.23$  19.58$  9.87$
  Q  -1.3290  14.29$  20.16$  9.22$
  Q  0.6645  13.97$  9.97$  16.98$
  Q  0.6645  13.36$  11.21$  16.62$
  Q  -1.3290  14.02$  10.72$  16.73$
  Q  0.6645  14.53$  18.56$  4.96$
  Q  0.6645  15.86$  19.1$  4.4$
  Q  -1.3290  15.07$  18.81$  4.36$
  Q  0.6645  7.8$  19.35$  7.58$
  Q  0.6645  8.96$  18.61$  6.76$
  Q  -1.3290  8.38$  18.74$  7.39$
  Q  0.6645  16.32$  0.86$  14.35$
  Q  0.6645  15.04$  1.24$  13.54$
  Q  -1.3290  15.86$  1.31$  13.77$
  Q  0.6645  18.59$  10.46$  13.43$
  Q  0.6645  17.42$  10.47$  14.32$
  Q  -1.3290  18.09$  10.15$  14.01$
  Q  0.6645  15.92$  9.33$  20.14$
  Q  0.6645  15.73$  7.93$  19.6$
  Q  -1.3290  15.94$  8.74$  19.56$
  Q  0.6645  21.63$  9.67$  16.3$
  Q  0.6645  20.57$  9.94$  15.48$
  Q  -1.3290  21.28$  9.61$  15.6$
  Q  0.6645  9.08$  -0.64$  16.26$
  Q  0.6645  9.93$  0.55$  15.69$
  Q  -1.3290  9.59$  0.03$  16.28$
  Q  0.6645  9.4$  7.02$  2.45$
  Q  0.6645  8.7$  7.01$  3.73$
  Q  -1.3290  9.27$  6.78$  3.23$
  Q  0.6645  3.99$  15.24$  10.93$
  Q  0.6645  4.89$  14.42$  10.01$
  Q  -1.3290  4.41$  14.56$  10.69$
  Q  0.6645  7.61$  17.6$  18.16$
  Q  0.6645  8.97$  17.23$  17.6$
  Q  -1.3290  8.47$  17.59$  18.15$
  Q  0.6645  6.07$  9.43$  15.29$
  Q  0.6645  4.64$  8.96$  15.87$
  Q  -1.3290  5.35$  9.42$  15.79$
  Q  0.6645  2.35$  11.58$  15.41$
  Q  0.6645  1.56$  11.12$  16.61$
  Q  -1.3290  1.75$  11.63$  15.96$
  Q  0.6645  6.31$  2.57$  10.42$
  Q  0.6645  7.19$  3.71$  10.55$
  Q  -1.3290  6.47$  3.39$  10.44$
  Q  0.6645  14.7$  17.65$  10.99$
  Q  0.6645  13.19$  17.42$  10.75$
  Q  -1.3290  13.9$  17.86$  10.96$
  Q  0.6645  3.27$  15.86$  6$
  Q  0.6645  2.43$  15.2$  4.81$
  Q  -1.3290  2.93$  15.8$  5.2$
  Q  0.6645  2.79$  13.04$  10.72$
  Q  0.6645  1.42$  13.23$  11.61$
  Q  -1.3290  2.03$  12.78$  11.17$
  Q  0.6645  12.6$  2.73$  11.99$
  Q  0.6645  12.88$  4$  12.75$
  Q  -1.3290  13.06$  3.37$  12.24$
  Q  0.6645  9.49$  18.72$  9.26$
  Q  0.6645  10.35$  18.64$  10.55$
  Q  -1.3290  9.72$  18.89$  10.05$
  Q  0.6645  6.22$  7.05$  4.35$
  Q  0.6645  7.05$  7.04$  5.61$
  Q  -1.3290  6.89$  7.24$  4.8$
  Q  0.6645  16.54$  17.63$  18.21$
  Q  0.6645  15.42$  18.54$  17.61$
  Q  -1.3290  15.89$  17.85$  17.69$
  Q  0.6645  17.18$  16.81$  11.75$
  Q  0.6645  17.13$  18.24$  11.24$
  Q  -1.3290  17.03$  17.43$  11.16$
  Q  0.6645  14.85$  5.59$  7.66$
  Q  0.6645  15.17$  7.12$  7.65$
  Q  -1.3290  15.01$  6.37$  8$
  Q  0.6645  18.53$  6.63$  6.77$
  Q  0.6645  17.87$  6.17$  5.47$
  Q  -1.3290  18.35$  6.66$  5.94$
  Q  0.6645  5.89$  10.57$  17.21$
  Q  0.6645  6.72$  11.62$  18$
  Q  -1.3290  6.13$  11.02$  17.9$
  Q  0.6645  14.15$  7.76$  1.84$
  Q  0.6645  14.89$  8.29$  3.02$
  Q  -1.3290  14.45$  7.71$  2.58$
  Q  0.6645  6.51$  1.17$  13.41$
  Q  0.6645  7.9$  1.64$  12.96$
  Q  -1.3290  7.16$  1.72$  13.36$
  Q  0.6645  3.29$  19.83$  9.47$
  Q  0.6645  4.54$  18.91$  9.27$
  Q  -1.3290  4.14$  19.62$  9.47$
  Q  0.6645  8.87$  6.46$  15.38$
  Q  0.6645  9.6$  5.4$  16.16$
  Q  -1.3290  9.45$  6.19$  15.9$
  Q  0.6645  7.55$  7.16$  21.05$
  Q  0.6645  7.45$  7.56$  19.48$
  Q  -1.3290  7.7$  7.1$  20.17$
  Q  0.6645  16.19$  13.07$  5.96$
  Q  0.6645  15.78$  13.23$  4.57$
  Q  -1.3290  15.97$  12.77$  5.23$
  Q  0.6645  14.31$  11.82$  18.2$
  Q  0.6645  13.21$  11.85$  19.2$
  Q  -1.3290  13.94$  12.08$  18.87$
  Q  0.6645  11.86$  6.61$  19.3$
  Q  0.6645  13.51$  6.79$  19.2$
  Q  -1.3290  12.64$  6.95$  19.46$
  Q  0.6645  13.03$  11.69$  3.43$
  Q  0.6645  13.88$  12.19$  2.21$
  Q  -1.3290  13.62$  11.62$  2.81$
  Q  0.6645  14.86$  17.23$  7.05$
  Q  0.6645  14.14$  18.52$  7.38$
  Q  -1.3290  14.34$  17.88$  6.88$
  Q  0.6645  17.03$  16.15$  7.61$
  Q  0.6645  16.87$  15.8$  6.15$
  Q  -1.3290  16.6$  15.94$  6.94$
  Q  0.6645  18.63$  11.07$  3.83$
  Q  0.6645  18.84$  9.64$  3.81$
  Q  -1.3290  18.68$  10.32$  4.2$
  Q  0.6645  9.56$  3.14$  17.35$
  Q  0.6645  8.26$  3.76$  16.63$
  Q  -1.3290  9.1$  3.6$  16.76$
  Q  0.6645  6.78$  0.43$  9.23$
  Q  0.6645  7.43$  0.42$  10.64$
  Q  -1.3290  7.2$  0.77$  9.9$
  Q  0.6645  12.36$  4.45$  5.65$
  Q  0.6645  12.03$  3.13$  6.42$
  Q  -1.3290  11.88$  3.94$  6.15$
  Q  0.6645  3.81$  7.53$  17.86$
  Q  0.6645  3.43$  6.84$  16.63$
  Q  -1.3290  3.37$  7.44$  17.17$
  Q  0.6645  13.3$  9.68$  1.66$
  Q  0.6645  12.63$  9.14$  0.33$
  Q  -1.3290  13.29$  9.29$  0.87$
  Q  0.6645  5.24$  14.19$  3.58$
  Q  0.6645  4.73$  15.66$  3.81$
  Q  -1.3290  5.03$  14.99$  3.35$
  Q  0.6645  5.82$  4.43$  12.1$
  Q  0.6645  5.9$  3.39$  13.03$
  Q  -1.3290  5.69$  4.17$  12.83$
  Q  0.6645  14.21$  15.62$  20.06$
  Q  0.6645  14.66$  14.08$  19.63$
  Q  -1.3290  14.46$  14.78$  20.15$
  Q  0.6645  13.82$  0.59$  14.8$
  Q  0.6645  12.71$  1.57$  14.31$
  Q  -1.3290  13.28$  0.89$  14.26$
  Q  0.6645  10.02$  2.72$  11.38$
  Q  0.6645  10.36$  1.22$  11.31$
  Q  -1.3290  10.17$  1.92$  11.66$
  Q  0.6645  5.47$  4.22$  8.55$
  Q  0.6645  5.63$  5.36$  7.64$
  Q  -1.3290  5.18$  4.85$  8.07$
  Q  0.6645  11.9$  19.19$  16.87$
  Q  0.6645  11.01$  17.88$  16.93$
  Q  -1.3290  11.72$  18.33$  17.05$
  Q  0.6645  11.41$  18.34$  7.43$
  Q  0.6645  11.4$  19.61$  8.44$
  Q  -1.3290  11.59$  19.15$  7.75$
  Q  0.6645  0.78$  7.33$  6.49$
  Q  0.6645  0.42$  8.23$  5.26$
  Q  -1.3290  0.71$  7.55$  5.65$
  Q  0.6645  12.56$  14.76$  1.98$
  Q  0.6645  11.43$  13.8$  2.32$
  Q  -1.3290  11.84$  14.32$  1.84$
  Q  0.6645  3.26$  17.69$  11.61$
  Q  0.6645  3.96$  16.66$  12.52$
  Q  -1.3290  3.87$  17.15$  11.84$
  Q  0.6645  18.97$  10.69$  6.48$
  Q  0.6645  18.65$  11.76$  7.44$
  Q  -1.3290  19.13$  11.18$  7.12$
  Q  0.6645  14.14$  6.1$  10.06$
  Q  0.6645  13.32$  5.09$  10.79$
  Q  -1.3290  13.55$  5.85$  10.6$
  Q  0.6645  12.74$  17.57$  18.83$
  Q  0.6645  12.18$  16.59$  19.92$
  Q  -1.3290  12.72$  17.16$  19.57$
  Q  0.6645  4.08$  14.15$  13.89$
  Q  0.6645  4.74$  15.18$  14.72$
  Q  -1.3290  4.13$  14.92$  14.24$
  Q  0.6645  5.49$  17.69$  7.3$
  Q  0.6645  7.04$  17.37$  7.62$
  Q  -1.3290  6.16$  17.27$  7.63$
  Q  0.6645  7.52$  3.03$  5.1$
  Q  0.6645  6.01$  2.68$  5.12$
  Q  -1.3290  6.8$  2.53$  4.99$
  Q  0.6645  7.31$  16.34$  13.5$
  Q  0.6645  6.51$  16.83$  14.66$
  Q  -1.3290  7.01$  16.3$  14.25$
  Q  0.6645  7.58$  9.26$  4.71$
  Q  0.6645  8.69$  9.94$  4.01$
  Q  -1.3290  8.04$  9.92$  4.51$
  Q  0.6645  10.05$  10.31$  2.05$
  Q  0.6645  10.44$  9.26$  3.1$
  Q  -1.3290  10.1$  9.98$  2.83$
  Q  0.6645  6.5$  2.09$  16.82$
  Q  0.6645  6.85$  2.57$  15.42$
  Q  -1.3290  6.61$  2.65$  16.22$
  Q  0.6645  13.04$  19.37$  12.1$
  Q  0.6645  12.85$  20.71$  12.91$
  Q  -1.3290  12.68$  20.11$  12.34$
  Q  0.6645  11.73$  8.34$  20.47$
  Q  0.6645  11.17$  9.68$  20.36$
  Q  -1.3290  11.4$  9.01$  20.78$
  Q  0.6645  17.13$  5.89$  12.93$
  Q  0.6645  16.42$  4.58$  13.39$
  Q  -1.3290  16.81$  5.13$  12.86$
  Q  0.6645  9.49$  9.84$  18.71$
  Q  0.6645  9.52$  11.39$  19.12$
  Q  -1.3290  9.81$  10.58$  19.03$
  Q  0.6645  19.15$  11.32$  17.65$
  Q  0.6645  18.91$  10.18$  16.69$
  Q  -1.3290  19.24$  10.9$  16.93$
  Q  0.6645  3$  9.07$  3.89$
  Q  0.6645  2.52$  7.71$  4.31$
  Q  -1.3290  2.84$  8.24$  3.8$
  Q  0.6645  10.11$  2.4$  3.56$
  Q  0.6645  10.32$  1.09$  4.39$
  Q  -1.3290  10.48$  1.66$  3.79$
  Q  0.6645  17.44$  13.41$  17.64$
  Q  0.6645  16.75$  12.2$  18.13$
  Q  -1.3290  16.8$  12.88$  17.68$
  Q  0.6645  17.32$  20.79$  8.26$
  Q  0.6645  16.17$  19.9$  8.75$
  Q  -1.3290  16.98$  20.18$  8.72$
  Q  0.6645  4.56$  10.22$  10.56$
  Q  0.6645  3.91$  9.39$  9.39$
  Q  -1.3290  4.46$  9.59$  9.98$
  Q  0.6645  12.41$  8.42$  17.93$
  Q  0.6645  12.76$  8.09$  16.53$
  Q  -1.3290  12.47$  8.59$  17.11$
  Q  0.6645  2.34$  16.02$  14.12$
  Q  0.6645  1.26$  16.74$  14.89$
  Q  -1.3290  1.66$  16.49$  14.2$
  Q  0.6645  0.5$  9.95$  12.67$
  Q  0.6645  0.9$  10.38$  14.04$
  Q  -1.3290  1.03$  10.29$  13.22$
  Q  0.6645  10.56$  19.71$  5.16$
  Q  0.6645  9.8$  18.36$  4.73$
  Q  -1.3290  9.93$  19.24$  4.78$
  Q  0.6645  17.51$  20.32$  12.13$
  Q  0.6645  16.55$  20.68$  11.13$
  Q  -1.3290  16.79$  20.26$  11.78$
  Q  0.6645  16.26$  5.48$  15.79$
  Q  0.6645  16.51$  6.98$  15.38$
  Q  -1.3290  16.53$  6.29$  15.89$
  Q  0.6645  20.52$  8.39$  10.09$
  Q  0.6645  22.03$  8.43$  10.1$
  Q  -1.3290  21.25$  8.12$  10.28$
  Q  0.6645  19.85$  13.43$  13.85$
  Q  0.6645  19.18$  13.57$  12.49$
  Q  -1.3290  19.5$  13.87$  13.2$
  Q  0.6645  9.01$  16.58$  15.09$
  Q  0.6645  9.73$  17.84$  14.41$
  Q  -1.3290  9.66$  17.14$  14.95$
  Q  0.6645  5.98$  11.58$  5.9$
  Q  0.6645  5.93$  10.36$  6.85$
  Q  -1.3290  5.85$  11.18$  6.65$
  Q  0.6645  6.74$  13.07$  1.57$
  Q  0.6645  5.67$  12.02$  1.77$
  Q  -1.3290  6.06$  12.64$  1.35$
  Q  0.6645  5.07$  18.02$  16.98$
  Q  0.6645  4.85$  18.85$  15.64$
  Q  -1.3290  5.29$  18.38$  16.24$
  Q  0.6645  14.25$  1.32$  9.92$
  Q  0.6645  13.35$  1.38$  8.71$
  Q  -1.3290  13.51$  1.27$  9.5$
  Q  0.6645  12.36$  16.62$  6.51$
  Q  0.6645  11.78$  15.8$  7.5$
  Q  -1.3290  11.73$  16.34$  6.94$
  Q  0.6645  12.49$  5.46$  14.75$
  Q  0.6645  12.19$  3.85$  15.06$
  Q  -1.3290  12.66$  4.58$  14.87$
  Q  0.6645  17.37$  16.33$  14.11$
  Q  0.6645  17.78$  15.2$  13.39$
  Q  -1.3290  17.29$  15.83$  13.48$
  Q  0.6645  2.2$  5.87$  14.92$
  Q  0.6645  2.67$  4.4$  14.86$
  Q  -1.3290  2.66$  5.19$  15.19$
  Q  0.6645  0.14$  6.63$  11.46$
  Q  0.6645  1.22$  5.68$  11.99$
  Q  -1.3290  0.41$  5.91$  11.85$
  Q  0.6645  15.15$  18.35$  14.66$
  Q  0.6645  15.84$  19.17$  13.56$
  Q  -1.3290  15.73$  18.86$  14.36$
  Q  0.6645  16.29$  14.19$  2.09$
  Q  0.6645  16.96$  15.13$  3.04$
  Q  -1.3290  16.56$  14.43$  2.84$
  Q  0.6645  7.14$  9.36$  18.08$
  Q  0.6645  8.17$  8.8$  17.02$
  Q  -1.3290  7.88$  9$  17.79$
  Q  0.6645  6.51$  6.32$  15.48$
  Q  0.6645  6.25$  5.55$  14.16$
  Q  -1.3290  6.64$  6.1$  14.67$
  Q  0.6645  14.27$  8.86$  12.15$
  Q  0.6645  13.76$  7.35$  11.96$
  Q  -1.3290  13.98$  8.05$  12.39$
  Q  0.6645  6.42$  17.73$  9.45$
  Q  0.6645  5.68$  17.45$  10.74$
  Q  -1.3290  6.34$  17.74$  10.27$
  Q  0.6645  7.47$  14.2$  11.56$
  Q  0.6645  5.9$  13.93$  11.65$
  Q  -1.3290  6.76$  13.78$  11.72$
  Q  0.6645  11.11$  20.88$  10.7$
  Q  0.6645  11.75$  21.99$  9.88$
  Q  -1.3290  11.11$  21.46$  10.09$
  Q  0.6645  10.86$  2.13$  13.72$
  Q  0.6645  10.31$  2.82$  15.02$
  Q  -1.3290  10.79$  2.3$  14.56$
  Q  0.6645  7.54$  14.82$  21.17$
  Q  0.6645  6.48$  14.02$  20.41$
  Q  -1.3290  7.18$  14.47$  20.52$
  Q  0.6645  14.97$  14.27$  16.86$
  Q  0.6645  14.55$  15.72$  16.99$
  Q  -1.3290  14.41$  14.89$  16.99$
  Q  0.6645  3.89$  5.42$  9.24$
  Q  0.6645  3.22$  5.28$  10.7$
  Q  -1.3290  3.25$  5.4$  9.84$
  Q  0.6645  10.56$  15.75$  2.11$
  Q  0.6645  10.4$  17.12$  2.28$
  Q  -1.3290  10.09$  16.39$  2.26$
  Q  0.6645  10.22$  16.4$  20.67$
  Q  0.6645  10.96$  15.24$  21.52$
  Q  -1.3290  10.71$  15.67$  20.79$
  Q  0.6645  12.88$  3.92$  1.72$
  Q  0.6645  12$  3.24$  2.86$
  Q  -1.3290  12.73$  3.46$  2.45$
  Q  0.6645  8.94$  12.66$  1.72$
  Q  0.6645  8.43$  14.01$  2.33$
  Q  -1.3290  8.54$  13.16$  2.3$
  Q  0.6645  18.5$  10.62$  19.92$
  Q  0.6645  18.63$  12.18$  19.9$
  Q  -1.3290  18.53$  11.4$  19.57$
  Q  0.6645  3.97$  2.05$  6.4$
  Q  0.6645  4.2$  3.48$  7.03$
  Q  -1.3290  4$  2.91$  6.43$
  Q  0.6645  11.11$  11.29$  4.13$
  Q  0.6645  11.1$  12.3$  5.23$
  Q  -1.3290  11.46$  11.78$  4.69$
  Q  0.6645  8.59$  1.75$  8.94$
  Q  0.6645  9.99$  1.26$  8.94$
  Q  -1.3290  9.36$  1.77$  8.69$
  Q  0.6645  6.64$  11.83$  21.32$
  Q  0.6645  6.75$  11.28$  19.9$
  Q  -1.3290  6.95$  11.37$  20.72$
  Q  0.6645  16.9$  6.45$  8.66$
  Q  0.6645  18.33$  5.8$  9.22$
  Q  -1.3290  17.8$  6.3$  8.74$
  Q  0.6645  9.9$  6.67$  17.96$
  Q  0.6645  9.31$  6.52$  19.33$
  Q  -1.3290  9.94$  6.44$  18.77$
  Q  0.6645  14.85$  11.53$  20.44$
  Q  0.6645  14.53$  10.25$  21.38$
  Q  -1.3290  15$  10.91$  21.08$
  Q  0.6645  17.86$  7.5$  16.98$
  Q  0.6645  17.66$  8.67$  18.05$
  Q  -1.3290  18.13$  8.15$  17.5$
  Q  0.6645  8.18$  19.43$  17.57$
  Q  0.6645  7$  19.46$  16.6$
  Q  -1.3290  7.69$  19.8$  17.02$
  Q  0.6645  12.73$  7.68$  4.44$
  Q  0.6645  13.14$  8.01$  5.81$
  Q  -1.3290  12.69$  7.61$  5.27$
  Q  0.6645  6.86$  19.81$  11.87$
  Q  0.6645  8.03$  20$  10.92$
  Q  -1.3290  7.54$  20.21$  11.57$
  Q  0.6645  12.6$  14.09$  18.22$
  Q  0.6645  11.38$  14.58$  19.15$
  Q  -1.3290  11.81$  14.07$  18.61$
  Q  0.6645  21.9$  10.52$  9.64$
  Q  0.6645  22.47$  11.12$  10.97$
  Q  -1.3290  21.86$  10.81$  10.44$
  Q  0.6645  16.61$  4.12$  10.84$
  Q  0.6645  17.94$  3.44$  10.48$
  Q  -1.3290  17.09$  3.61$  10.39$
  Q  0.6645  9$  -0.52$  6.35$
  Q  0.6645  9.39$  0.81$  6.91$
  Q  -1.3290  9.49$  0.14$  6.43$
  Q  0.6645  10.21$  11.75$  -0.22$
  Q  0.6645  8.69$  11.46$  -0.3$
  Q  -1.3290  9.42$  11.65$  0.12$
  Q  0.6645  12.13$  12.78$  21.6$
  Q  0.6645  11.45$  12.82$  20.18$
  Q  -1.3290  11.83$  12.46$  20.88$
  Q  0.6645  20.11$  11.2$  11.64$
  Q  0.6645  18.61$  11.63$  11.75$
  Q  -1.3290  19.32$  11.16$  11.94$
  Q  0.6645  10.23$  16.64$  5.62$
  Q  0.6645  9.56$  16.15$  4.23$
  Q  -1.3290  9.67$  16.65$  4.96$
  Q  0.6645  8.74$  3.59$  7.26$
  Q  0.6645  9.68$  4.38$  6.44$
  Q  -1.3290  8.93$  4.08$  6.64$
  Q  0.6645  6.27$  16$  19.38$
  Q  0.6645  5.45$  17.39$  19.19$
  Q  -1.3290  5.92$  16.68$  18.95$
  Q  0.6645  9.21$  19.72$  12.91$
  Q  0.6645  10.75$  19.63$  13.08$
  Q  -1.3290  9.92$  19.35$  13.15$
  Q  0.6645  3.88$  2.07$  11.5$
  Q  0.6645  4.31$  0.72$  12.05$
  Q  -1.3290  4.29$  1.56$  12.02$
  Q  0.6645  0.59$  15.38$  12.71$
  Q  0.6645  -0.65$  14.56$  12.33$
  Q  -1.3290  0.17$  14.73$  12.34$
  Q  0.6645  13.96$  4.74$  18.33$
  Q  0.6645  13.57$  4.42$  16.86$
  Q  -1.3290  13.56$  4.34$  17.7$
  Q  0.6645  17.11$  8.58$  13.72$
  Q  0.6645  15.74$  8.05$  13.25$
  Q  -1.3290  16.52$  7.97$  13.59$
  Q  0.6645  14.73$  4.04$  14.82$
  Q  0.6645  15.67$  2.93$  15.41$
  Q  -1.3290  15.39$  3.73$  15.31$
  Q  0.6645  14.92$  15.27$  2.95$
  Q  0.6645  14.45$  16.69$  2.97$
  Q  -1.3290  14.37$  15.87$  2.93$
  Q  0.6645  3.56$  15.87$  8.32$
  Q  0.6645  2.29$  16.72$  7.99$
  Q  -1.3290  2.73$  16.04$  8.2$
  Q  0.6645  16.63$  3.71$  8.36$
  Q  0.6645  16.64$  3.74$  6.87$
  Q  -1.3290  16.29$  3.58$  7.64$
  Q  0.6645  9.62$  6.86$  0.41$
  Q  0.6645  10.14$  8.26$  0.42$
  Q  -1.3290  9.61$  7.66$  0.63$
  Q  0.6645  3.16$  6.45$  12.67$
  Q  0.6645  3.9$  5.23$  12.53$
  Q  -1.3290  3.21$  5.68$  12.46$
  Q  0.6645  2.5$  3.49$  9.83$
  Q  0.6645  1.99$  2.05$  9.69$
  Q  -1.3290  2.38$  2.68$  10.06$
  Q  0.6645  7.5$  7.4$  7.61$
  Q  0.6645  7.98$  5.91$  7.1$
  Q  -1.3290  7.41$  6.56$  7.33$
  Q  0.6645  4.07$  10.83$  4.02$
  Q  0.6645  3.11$  10.78$  5.24$
  Q  -1.3290  3.33$  10.82$  4.43$
  Q  0.6645  18.2$  7.98$  10.24$
  Q  0.6645  18.7$  9.07$  11.24$
  Q  -1.3290  18.56$  8.73$  10.47$
  Q  0.6645  6.49$  11.72$  12.21$
  Q  0.6645  6.01$  10.25$  12.6$
  Q  -1.3290  5.94$  11.06$  12.31$
  Q  0.6645  8.14$  16.88$  11.1$
  Q  0.6645  9.21$  16.17$  12.01$
  Q  -1.3290  8.42$  16.35$  11.71$
  Q  0.6645  7.19$  12.79$  4.25$
  Q  0.6645  6.86$  13.64$  5.34$
  Q  -1.3290  6.66$  13.25$  4.65$
  Q  0.6645  12.41$  20.12$  6.24$
  Q  0.6645  11.77$  21.44$  5.9$
  Q  -1.3290  12.25$  20.8$  5.76$
  Q  0.6645  5.17$  5.41$  17.59$
  Q  0.6645  5.96$  6.65$  17.87$
  Q  -1.3290  5.81$  5.96$  17.45$
  Q  0.6645  15.77$  6.08$  19.64$
  Q  0.6645  15.94$  6.07$  18.1$
  Q  -1.3290  15.51$  6.05$  18.84$
  Q  0.6645  17.19$  17.15$  16.34$
  Q  0.6645  17.4$  18.03$  15.13$
  Q  -1.3290  17.58$  17.4$  15.64$
  Q  0.6645  8.19$  13.36$  19.23$
  Q  0.6645  8.88$  13.59$  17.81$
  Q  -1.3290  8.55$  13.13$  18.5$
  Q  0.6645  16.31$  4.32$  5.15$
  Q  0.6645  17.52$  3.63$  4.63$
  Q  -1.3290  17.11$  4.22$  5.07$
  Q  0.6645  15.2$  10.27$  3.57$
  Q  0.6645  16.63$  10.44$  3.93$
  Q  -1.3290  15.97$  10.03$  3.63$
  Q  0.6645  14.15$  4.28$  3.87$
  Q  0.6645  14.08$  5.67$  4.46$
  Q  -1.3290  14.31$  4.87$  4.45$
  Q  0.6645  18.8$  15.44$  9.13$
  Q  0.6645  17.54$  16.13$  9.88$
  Q  -1.3290  17.98$  15.59$  9.38$
  Q  0.6645  20.65$  9.91$  8.05$
  Q  0.6645  21.78$  10.13$  6.97$
  Q  -1.3290  21.46$  9.99$  7.74$
  Q  0.6645  2.91$  10.66$  7.34$
  Q  0.6645  1.97$  9.51$  7.1$
  Q  -1.3290  2.67$  9.96$  6.96$
  Q  0.6645  3.48$  13.32$  7.35$
  Q  0.6645  2.57$  12.93$  6.14$
  Q  -1.3290  2.86$  12.91$  6.93$
  Q  0.6645  4.22$  6.67$  3.37$
  Q  0.6645  4.48$  5.17$  3.71$
  Q  -1.3290  4.69$  5.95$  3.46$
  Q  0.6645  15.81$  0.69$  11.73$
  Q  0.6645  16.31$  1.85$  10.91$
  Q  -1.3290  15.93$  1.11$  11.01$
  Q  0.6645  2.62$  8.1$  10.4$
  Q  0.6645  2.24$  7.4$  9.07$
  Q  -1.3290  2.22$  8$  9.66$
  Q  0.6645  5.6$  9.91$  1.94$
  Q  0.6645  6.16$  10.3$  3.31$
  Q  -1.3290  5.57$  10.24$  2.72$
  Q  0.6645  9.42$  3.99$  1.94$
  Q  0.6645  9.1$  4.87$  3.09$
  Q  -1.3290  9.19$  4.15$  2.71$
  Q  0.6645  8.95$  13.96$  6.77$
  Q  0.6645  8.31$  15.37$  6.29$
  Q  -1.3290  8.3$  14.53$  6.51$
  Q  0.6645  19.11$  14.73$  19.06$
  Q  0.6645  19.56$  14.69$  17.55$
  Q  -1.3290  19.01$  14.76$  18.19$
  Q  0.6645  15.83$  8.95$  5.88$
  Q  0.6645  17.08$  8.09$  6.18$
  Q  -1.3290  16.37$  8.5$  6.38$
  Q  0.6645  5.38$  13.04$  7.77$
  Q  0.6645  5.97$  14.44$  7.74$
  Q  -1.3290  5.38$  13.86$  7.93$
  Q  0.6645  14.7$  15.15$  6.03$
  Q  0.6645  13.98$  15.29$  4.65$
  Q  -1.3290  14.19$  14.93$  5.4$
  Q  0.6645  14.23$  2.61$  7.19$
  Q  0.6645  13.92$  1.22$  6.59$
  Q  -1.3290  13.72$  1.97$  6.97$
  Q  0.6645  4.58$  14.08$  17.15$
  Q  0.6645  5.62$  15.18$  17.5$
  Q  -1.3290  5.29$  14.54$  17.07$
  Q  0.6645  20.21$  12.32$  15.88$
  Q  0.6645  21.62$  12.46$  15.33$
  Q  -1.3290  20.84$  12.73$  15.54$
  Q  0.6645  13.49$  16.48$  14.05$
  Q  0.6645  12.98$  17.19$  15.41$
  Q  -1.3290  13.5$  17.02$  14.75$
  Q  0.6645  4.48$  8.4$  13.39$
  Q  0.6645  3.19$  9.11$  13.36$
  Q  -1.3290  3.66$  8.45$  13.36$
*
