! NoMOPrint PrintBasis #MINIPRINT SMALLPRINT LARGEPRINT
! ALLPOP XYZFILE
#! BP86 3-21G   TightSCF
! ENGRAD
! B3LYP NormalPNO PModel #DecontractAux
#! VerySlowConv 
 %maxcore 5000
 %scf  maxiter   500  end 

%pal
    nprocs 32
end

%basis
    NewGTO O    # New basis for oxygen
        "aug-cc-pVTZ"
    end
    NewGTO C    # New basis for carbon
        "aug-cc-pVTZ"
    end
    NewGTO H    # New basis for hydrogen
        "cc-pVTZ"
    end
end

* xyz 0   1
  C  10.04  12.19  9.6  #1
  H  10.36  11.83  8.62  #2
  H  10.68  13  9.9  #3
  C  10.16  11.04  10.52  #4
  H  9.79  11.38  11.52  #5
  H  9.49  10.2  10.13  #6
  C  11.51  10.3  10.7  #7
  H  12.41  10.89  10.63  #8
  H  11.58  9.49  10  #9
  C  11.59  9.54  12.07  #10
  H  10.79  8.74  12.13  #11
  H  11.35  10.24  12.88  #12
  O  12.94  9.08  12.16  #13
  H  13.16  8.9  13.11  #14
  O  8.68  12.52  9.5  #15
  H  8.58  13  8.67  #16
  O  7.94  14.54  11.57  #17
  H  7.13  14.71  12.07  #18
  H  7.89  13.72  11.12  #19
  O  14.92  9.61  10.26  #20
  H  15.66  9.05  10.17  #21
  H  14.35  9.19  10.89  #22
  O  10.53  11.91  14.19  #23
  H  10.7  11.82  15.15  #24
  H  9.56  11.88  14.12  #25
  O  8.95  14.18  7.4  #26
  H  9.52  14.88  7.7  #27
  H  8.18  14.65  7.1  #28
  O  9.43  7.54  8.31  #29
  H  8.61  7.67  7.82  #30
  H  9.08  7.78  9.18  #31
  O  11.63  7.46  6.48  #32
  H  10.95  7.69  7.09  #33
  H  11.39  7.81  5.59  #34
  O  9.39  15.72  13.72  #35
  H  10.3  15.65  14.01  #36
  H  9.17  15.15  12.97  #37
  O  12.11  13.8  13.2  #38
  H  11.61  13.18  13.72  #39
  H  12.14  14.55  13.85  #40
  O  6.4  9  9.95  #41
  H  7.19  8.45  10.1  #42
  H  6.42  9.65  10.66  #43
  O  9.61  11.62  5.67  #44
  H  9.6  12.35  6.23  #45
  H  9.73  11.9  4.77  #46
  O  13.72  9.14  7.56  #47
  H  13.83  9.37  8.51  #48
  H  13.06  8.54  7.43  #49
  O  8.35  7.56  11.1  #50
  H  7.83  7.98  11.78  #51
  H  8.51  6.69  11.44  #52
  O  9.63  16.78  10.85  #53
  H  9.04  16.07  11.09  #54
  H  10.1  16.4  10.09  #55
  O  8.12  9.33  6.12  #56
  H  8.97  9.84  6.04  #57
  H  7.89  8.89  5.27  #58
  O  5.51  15.1  12.88  #59
  H  5.44  15.06  13.79  #60
  H  4.86  15.76  12.54  #61
  O  14.27  9.07  14.48  #62
  H  14.04  10.01  14.28  #63
  H  14.92  8.76  13.82  #64
  O  9.39  12.5  17.03  #65
  H  8.48  12.36  17.23  #66
  H  9.36  13.27  16.4  #67
  O  12.91  14.53  8.52  #68
  H  13.06  13.93  7.71  #69
  H  13.08  13.85  9.24  #70
  O  17.63  8.42  10.05  #71
  H  17.59  9.35  9.68  #72
  H  17.55  8.4  10.99  #73
  O  13.09  7.25  16.07  #74
  H  13.4  7.88  15.37  #75
  H  12.89  6.42  15.68  #76
  O  10.96  5.25  9.46  #77
  H  11.88  5.49  9.65  #78
  H  10.48  6.11  9.24  #79
  O  5.56  13.21  8.95  #80
  H  5.61  13.86  8.28  #81
  H  5.78  12.41  8.39  #82
  O  8.96  8.46  14.52  #83
  H  9.61  8.54  15.18  #84
  H  8.93  9.27  13.96  #85
  O  16.18  6.94  8.41  #86
  H  15.55  7.51  7.88  #87
  H  16.76  7.53  8.99  #88
  O  6.83  16.51  9.72  #89
  H  7.08  15.91  10.42  #90
  H  7.47  17.23  9.89  #91
  O  15.64  11.57  8.13  #92
  H  14.77  11.45  7.79  #93
  H  15.73  11.25  8.99  #94
  O  6.31  15.68  7.06  #95
  H  6.2  16  7.93  #96
  H  5.54  15.86  6.59  #97
  O  10.48  16  8.36  #98
  H  11.36  15.58  8.18  #99
  H  10.56  16.91  8.08  #100
  O  8.23  17.6  6.21  #101
  H  8.26  18.46  6.61  #102
  H  7.55  17.07  6.6  #103
  O  6.64  11.35  11.22  #104
  H  7.23  11.79  10.58  #105
  H  5.84  11.93  11.12  #106
  O  13.11  12.91  10.65  #107
  H  12.57  13.21  11.38  #108
  H  13.76  12.41  11.16  #109
  O  7.7  11.42  14  #110
  H  7.18  11.32  13.14  #111
  H  7.13  11.09  14.7  #112
  O  15  11.7  12.28  #113
  H  15.3  10.97  11.73  #114
  H  15.53  11.8  13.08  #115
  Q  0.6645  3.5$  16.47$  10.85$
  Q  0.6645  2.5$  15.79$  11.7$
  Q  -1.3290  3.18$  16.25$  11.58$
  Q  0.6645  0.34$  15.22$  11.3$
  Q  0.6645  1.09$  14.48$  12.55$
  Q  -1.3290  0.93$  14.69$  11.72$
  Q  0.6645  14.31$  16.4$  2.97$
  Q  0.6645  14.94$  17.59$  3.44$
  Q  -1.3290  14.95$  16.89$  3.08$
  Q  0.6645  13.1$  12.37$  18.1$
  Q  0.6645  14.48$  11.57$  17.94$
  Q  -1.3290  13.95$  12.27$  17.88$
  Q  0.6645  4.11$  12.85$  1.71$
  Q  0.6645  5.02$  13.87$  2.11$
  Q  -1.3290  4.83$  13.11$  1.89$
  Q  0.6645  4.2$  12.64$  5.71$
  Q  0.6645  5.38$  13.31$  5.65$
  Q  -1.3290  4.59$  13.31$  5.8$
  Q  0.6645  12.63$  14.25$  2.89$
  Q  0.6645  13.89$  13.73$  3.55$
  Q  -1.3290  13.37$  14.34$  3.25$
  Q  0.6645  4.96$  17.02$  9.33$
  Q  0.6645  3.55$  17.21$  8.35$
  Q  -1.3290  4.1$  17.17$  9.08$
  Q  0.6645  11.65$  5$  15.09$
  Q  0.6645  11.83$  4.31$  16.44$
  Q  -1.3290  12.08$  4.61$  15.66$
  Q  0.6645  12.25$  11.57$  3.13$
  Q  0.6645  13.61$  11.11$  2.52$
  Q  -1.3290  13.06$  11.28$  3.14$
  Q  0.6645  7.47$  2.71$  12.77$
  Q  0.6645  7.14$  2.37$  14.25$
  Q  -1.3290  7.59$  2.33$  13.52$
  Q  0.6645  18.27$  8.46$  20.2$
  Q  0.6645  18.84$  7.07$  20.1$
  Q  -1.3290  18.61$  7.82$  19.8$
  Q  0.6645  15.21$  15.15$  19.16$
  Q  0.6645  14.91$  13.65$  18.98$
  Q  -1.3290  15.13$  14.36$  19.39$
  Q  0.6645  6.18$  8.59$  17.12$
  Q  0.6645  5.43$  8.82$  18.42$
  Q  -1.3290  5.52$  8.68$  17.63$
  Q  0.6645  20.27$  12.94$  14.34$
  Q  0.6645  19.87$  11.67$  13.7$
  Q  -1.3290  20.1$  12.45$  13.68$
  Q  0.6645  3.77$  16.91$  15.04$
  Q  0.6645  2.17$  16.98$  15.05$
  Q  -1.3290  2.95$  16.73$  15.29$
  Q  0.6645  13.84$  10.47$  4.74$
  Q  0.6645  14.17$  9.74$  6.03$
  Q  -1.3290  14.27$  9.95$  5.22$
  Q  0.6645  13.65$  1.67$  14.97$
  Q  0.6645  15.07$  1.74$  15.57$
  Q  -1.3290  14.34$  1.35$  15.35$
  Q  0.6645  16.55$  2.97$  10.12$
  Q  0.6645  17.2$  3.97$  9.22$
  Q  -1.3290  17.12$  3.57$  9.93$
  Q  0.6645  11.42$  7.75$  16.43$
  Q  0.6645  10.85$  8.58$  17.52$
  Q  -1.3290  10.8$  8.1$  16.86$
  Q  0.6645  13.12$  11.05$  20.93$
  Q  0.6645  12.61$  12.34$  21.76$
  Q  -1.3290  12.53$  11.56$  21.3$
  Q  0.6645  14.3$  20.97$  4.56$
  Q  0.6645  13.79$  19.73$  5.16$
  Q  -1.3290  13.76$  20.34$  4.61$
  Q  0.6645  5.85$  2.48$  16.25$
  Q  0.6645  7.13$  2.03$  17.12$
  Q  -1.3290  6.72$  2.39$  16.49$
  Q  0.6645  18.46$  15.16$  10.3$
  Q  0.6645  18.24$  16.65$  10.83$
  Q  -1.3290  18.21$  15.99$  10.27$
  Q  0.6645  11.75$  19.7$  16.71$
  Q  0.6645  12.9$  18.84$  16.17$
  Q  -1.3290  12.44$  19.24$  16.76$
  Q  0.6645  2.52$  10.26$  2.88$
  Q  0.6645  2.15$  9.26$  4.06$
  Q  -1.3290  2.05$  9.92$  3.56$
  Q  0.6645  9.75$  11.41$  2.37$
  Q  0.6645  9.88$  12.95$  2.7$
  Q  -1.3290  10.14$  12.13$  2.67$
  Q  0.6645  4.72$  10.94$  14.18$
  Q  0.6645  4.81$  10.15$  15.5$
  Q  -1.3290  5.05$  10.39$  14.73$
  Q  0.6645  5.9$  18$  2.7$
  Q  0.6645  5.06$  18.05$  1.43$
  Q  -1.3290  5.18$  17.92$  2.27$
  Q  0.6645  17.3$  14.63$  14.62$
  Q  0.6645  16.17$  14.53$  15.8$
  Q  -1.3290  16.96$  14.62$  15.46$
  Q  0.6645  3.1$  13.95$  6.88$
  Q  0.6645  2.09$  13.87$  8.08$
  Q  -1.3290  2.4$  14.13$  7.35$
  Q  0.6645  3.79$  2.94$  9.75$
  Q  0.6645  4.89$  3$  10.87$
  Q  -1.3290  4.21$  2.68$  10.46$
  Q  0.6645  12.08$  16.59$  1.33$
  Q  0.6645  10.7$  17.17$  1.76$
  Q  -1.3290  11.25$  16.57$  1.54$
  Q  0.6645  11.54$  2.07$  14.18$
  Q  0.6645  12.45$  3.29$  14.61$
  Q  -1.3290  12.25$  2.55$  14.17$
  Q  0.6645  18.44$  5.75$  6.56$
  Q  0.6645  19.97$  5.96$  6.33$
  Q  -1.3290  19.15$  6.15$  6.34$
  Q  0.6645  4.13$  13.21$  12.88$
  Q  0.6645  3.57$  12.29$  11.85$
  Q  -1.3290  4.03$  12.47$  12.53$
  Q  0.6645  1.94$  13.29$  14.56$
  Q  0.6645  2.31$  14.77$  14.76$
  Q  -1.3290  1.99$  14.1$  14.33$
  Q  0.6645  2.5$  7.09$  5.52$
  Q  0.6645  3.23$  7.56$  4.16$
  Q  -1.3290  2.86$  7.64$  4.94$
  Q  0.6645  11.6$  17.45$  11.83$
  Q  0.6645  12.76$  18.28$  11.47$
  Q  -1.3290  12.32$  17.76$  11.94$
  Q  0.6645  17.98$  7.94$  17.97$
  Q  0.6645  18.06$  7.77$  16.45$
  Q  -1.3290  17.67$  7.93$  17.17$
  Q  0.6645  1.15$  17.59$  7.6$
  Q  0.6645  1.86$  16.17$  7.31$
  Q  -1.3290  1.75$  17.02$  7.31$
  Q  0.6645  10.54$  4.24$  18.79$
  Q  0.6645  9.87$  4.72$  17.39$
  Q  -1.3290  10.35$  4.22$  17.93$
  Q  0.6645  14.34$  12.72$  6.06$
  Q  0.6645  12.9$  12.31$  5.68$
  Q  -1.3290  13.52$  12.68$  6.13$
  Q  0.6645  12.33$  10.01$  18.86$
  Q  0.6645  10.99$  10.7$  18.76$
  Q  -1.3290  11.48$  10.03$  18.79$
  Q  0.6645  16.47$  15.18$  6.32$
  Q  0.6645  16.59$  15.99$  4.97$
  Q  -1.3290  16.23$  15.47$  5.56$
  Q  0.6645  20.38$  9.4$  10.84$
  Q  0.6645  19.57$  8.27$  10.38$
  Q  -1.3290  20.12$  8.62$  10.88$
  Q  0.6645  16.52$  13.66$  7.82$
  Q  0.6645  17.08$  14.92$  8.6$
  Q  -1.3290  17.05$  14.33$  7.98$
  Q  0.6645  17.21$  2.36$  14.47$
  Q  0.6645  18.46$  2.08$  13.53$
  Q  -1.3290  17.68$  1.94$  13.86$
  Q  0.6645  9.51$  15.32$  3.83$
  Q  0.6645  9.41$  15.08$  2.32$
  Q  -1.3290  9.28$  14.89$  3.11$
  Q  0.6645  6.46$  11.79$  18.5$
  Q  0.6645  5.65$  12.35$  17.3$
  Q  -1.3290  6.37$  12.16$  17.74$
  Q  0.6645  15.54$  10.66$  1.07$
  Q  0.6645  16.3$  11.43$  2.02$
  Q  -1.3290  16.17$  11.18$  1.26$
  Q  0.6645  13.04$  6.41$  2.81$
  Q  0.6645  13.79$  7.44$  3.81$
  Q  -1.3290  13.28$  7.17$  3.16$
  Q  0.6645  9.79$  15.77$  17.25$
  Q  0.6645  10.81$  15.58$  18.5$
  Q  -1.3290  10.52$  15.85$  17.73$
  Q  0.6645  16.44$  8.07$  4.39$
  Q  0.6645  15.99$  9.56$  4.58$
  Q  -1.3290  16.52$  8.94$  4.36$
  Q  0.6645  2.37$  11.21$  14.11$
  Q  0.6645  2.55$  11.69$  15.55$
  Q  -1.3290  2.1$  11.49$  14.86$
  Q  0.6645  7.45$  21.12$  5.39$
  Q  0.6645  6.12$  21.21$  4.75$
  Q  -1.3290  6.93$  21.15$  4.74$
  Q  0.6645  12.33$  16.77$  15.31$
  Q  0.6645  11.65$  15.63$  16.24$
  Q  -1.3290  12.06$  15.97$  15.54$
  Q  0.6645  6.35$  12.36$  1.33$
  Q  0.6645  7.86$  12.63$  0.74$
  Q  -1.3290  7.15$  12.16$  0.98$
  Q  0.6645  16.35$  11.49$  15.61$
  Q  0.6645  17.07$  12.66$  14.87$
  Q  -1.3290  16.74$  11.89$  14.93$
  Q  0.6645  9.19$  5.83$  2.9$
  Q  0.6645  10.09$  6.85$  3.76$
  Q  -1.3290  9.51$  6.19$  3.6$
  Q  0.6645  0.59$  15.96$  5.37$
  Q  0.6645  1.61$  15.09$  4.63$
  Q  -1.3290  0.91$  15.57$  4.71$
  Q  0.6645  18.82$  8.56$  14.57$
  Q  0.6645  19.45$  7.15$  14.18$
  Q  -1.3290  18.85$  7.7$  14.53$
  Q  0.6645  7.81$  15.19$  16.57$
  Q  0.6645  8.74$  15.36$  15.33$
  Q  -1.3290  8.54$  15.12$  16.11$
  Q  0.6645  14.14$  14.14$  1.1$
  Q  0.6645  14.49$  14.03$  -0.31$
  Q  -1.3290  13.98$  14.03$  0.3$
  Q  0.6645  11.09$  19.3$  7.01$
  Q  0.6645  11.89$  18.01$  6.7$
  Q  -1.3290  11.24$  18.45$  7.02$
  Q  0.6645  17.81$  14.46$  12.04$
  Q  0.6645  16.53$  15.15$  12.64$
  Q  -1.3290  17.32$  14.78$  12.66$
  Q  0.6645  17.27$  10.5$  21.39$
  Q  0.6645  17.49$  10.97$  19.98$
  Q  -1.3290  17.33$  10.42$  20.57$
  Q  0.6645  7.12$  1.91$  7.96$
  Q  0.6645  8.26$  1.27$  8.89$
  Q  -1.3290  7.64$  1.82$  8.67$
  Q  0.6645  14.31$  2.69$  10.28$
  Q  0.6645  14.93$  1.26$  10.24$
  Q  -1.3290  14.89$  2.06$  10.03$
  Q  0.6645  5.83$  16.27$  16$
  Q  0.6645  5.34$  14.79$  16.36$
  Q  -1.3290  5.87$  15.39$  16.08$
  Q  0.6645  5.32$  18.69$  14.19$
  Q  0.6645  5.85$  18.63$  15.62$
  Q  -1.3290  5.8$  18.42$  14.81$
  Q  0.6645  1.98$  13.03$  10.78$
  Q  0.6645  2.42$  11.92$  9.81$
  Q  -1.3290  2.29$  12.26$  10.57$
  Q  0.6645  20.58$  7.32$  12.39$
  Q  0.6645  20.44$  5.86$  12.46$
  Q  -1.3290  20.73$  6.56$  12.76$
  Q  0.6645  6.06$  8.83$  13.73$
  Q  0.6645  7.38$  8.22$  14.24$
  Q  -1.3290  6.71$  8.34$  13.68$
  Q  0.6645  14.84$  2.05$  8.04$
  Q  0.6645  14.2$  2.26$  6.69$
  Q  -1.3290  14.84$  2.26$  7.24$
  Q  0.6645  8.79$  17.55$  13.78$
  Q  0.6645  7.75$  18.66$  13.98$
  Q  -1.3290  8.52$  18.33$  13.92$
  Q  0.6645  9.25$  1.46$  14.08$
  Q  0.6645  10.14$  0.27$  14.68$
  Q  -1.3290  9.97$  1.06$  14.34$
  Q  0.6645  3.71$  19.45$  12.08$
  Q  0.6645  3.53$  17.95$  12.53$
  Q  -1.3290  3.86$  18.74$  12.54$
  Q  0.6645  9.68$  19.37$  12.49$
  Q  0.6645  9.82$  18.83$  11$
  Q  -1.3290  9.78$  19.41$  11.59$
  Q  0.6645  11.32$  9.82$  21.46$
  Q  0.6645  11.55$  8.28$  21.47$
  Q  -1.3290  11.12$  9$  21.57$
  Q  0.6645  13.51$  12.02$  15.94$
  Q  0.6645  13.31$  12.48$  14.54$
  Q  -1.3290  13.45$  11.87$  15.14$
  Q  0.6645  8.2$  9.11$  1.95$
  Q  0.6645  9.44$  9.26$  1.14$
  Q  -1.3290  8.97$  9.39$  1.82$
  Q  0.6645  3.5$  9.01$  17.2$
  Q  0.6645  2.55$  9.11$  16.03$
  Q  -1.3290  2.84$  9.34$  16.78$
  Q  0.6645  17.23$  9.23$  6.44$
  Q  0.6645  18.28$  8.29$  6.92$
  Q  -1.3290  17.82$  8.97$  6.97$
  Q  0.6645  16.25$  9.61$  17.02$
  Q  0.6645  15.03$  9.75$  16.05$
  Q  -1.3290  15.54$  9.96$  16.69$
  Q  0.6645  7.91$  1.36$  5.53$
  Q  0.6645  7.68$  2.87$  5.45$
  Q  -1.3290  7.57$  2.09$  5.77$
  Q  0.6645  9.53$  4.73$  11.13$
  Q  0.6645  9.55$  5.06$  12.6$
  Q  -1.3290  9.2$  5.04$  11.82$
  Q  0.6645  7.64$  4.06$  16.02$
  Q  0.6645  7.58$  5.53$  15.73$
  Q  -1.3290  7.96$  4.83$  16$
  Q  0.6645  18.34$  5.67$  16.23$
  Q  0.6645  19.75$  4.91$  16.57$
  Q  -1.3290  18.9$  4.99$  16.4$
  Q  0.6645  16.29$  4.04$  7.26$
  Q  0.6645  16.8$  5.42$  7.79$
  Q  -1.3290  16.86$  4.64$  7.4$
  Q  0.6645  9.94$  19.58$  14.88$
  Q  0.6645  11.35$  19.97$  14.35$
  Q  -1.3290  10.66$  20.03$  14.85$
  Q  0.6645  13.51$  5.14$  7.59$
  Q  0.6645  13.16$  5.8$  6.3$
  Q  -1.3290  13.57$  5.24$  6.76$
  Q  0.6645  4.51$  6.32$  17.5$
  Q  0.6645  3.49$  5.36$  18$
  Q  -1.3290  4.25$  5.65$  17.87$
  Q  0.6645  9.27$  21.44$  7.04$
  Q  0.6645  9.69$  21.62$  5.54$
  Q  -1.3290  9.35$  21.22$  6.22$
  Q  0.6645  13.18$  9.74$  0.76$
  Q  0.6645  14.04$  9.02$  1.78$
  Q  -1.3290  13.91$  9.59$  1.19$
  Q  0.6645  8.44$  8.38$  19$
  Q  0.6645  9.5$  8.96$  19.91$
  Q  -1.3290  8.72$  8.77$  19.69$
  Q  0.6645  9.94$  17.65$  17.81$
  Q  0.6645  9.89$  19.07$  18.51$
  Q  -1.3290  9.62$  18.41$  18.05$
  Q  0.6645  2.36$  9.16$  11.92$
  Q  0.6645  1.3$  10.01$  12.53$
  Q  -1.3290  2.03$  9.59$  12.53$
  Q  0.6645  5.84$  8.06$  5.16$
  Q  0.6645  5.89$  9.71$  4.74$
  Q  -1.3290  5.99$  8.82$  4.64$
  Q  0.6645  12.93$  3.13$  12.36$
  Q  0.6645  12.04$  3.05$  11.04$
  Q  -1.3290  12.74$  3.23$  11.5$
  Q  0.6645  6.34$  15.29$  22.31$
  Q  0.6645  6.28$  16.43$  21.35$
  Q  -1.3290  6.32$  15.64$  21.54$
  Q  0.6645  4.29$  16.83$  4.69$
  Q  0.6645  3.52$  17.64$  5.6$
  Q  -1.3290  4.22$  17.34$  5.33$
  Q  0.6645  7.3$  10.2$  20.17$
  Q  0.6645  6.35$  11.18$  20.86$
  Q  -1.3290  6.63$  10.68$  20.23$
  Q  0.6645  19.09$  18.22$  8.12$
  Q  0.6645  18.38$  16.94$  8.03$
  Q  -1.3290  18.81$  17.56$  7.73$
  Q  0.6645  3.81$  9.05$  9.66$
  Q  0.6645  2.32$  9.08$  9.33$
  Q  -1.3290  3$  8.98$  9.82$
  Q  0.6645  9.39$  5.27$  14.98$
  Q  0.6645  9.62$  6.5$  14.24$
  Q  -1.3290  9.83$  5.74$  14.46$
  Q  0.6645  7.98$  22.07$  12.5$
  Q  0.6645  8.45$  20.87$  11.7$
  Q  -1.3290  7.99$  21.56$  11.81$
  Q  0.6645  13.55$  6.51$  20.82$
  Q  0.6645  13.39$  6.29$  22.33$
  Q  -1.3290  13.15$  6.61$  21.57$
  Q  0.6645  13.12$  18$  13.73$
  Q  0.6645  14.37$  18.06$  14.66$
  Q  -1.3290  13.52$  18.07$  14.48$
  Q  0.6645  15.28$  10.51$  20.04$
  Q  0.6645  14.38$  9.5$  19.28$
  Q  -1.3290  14.55$  10.2$  19.78$
  Q  0.6645  14.66$  5.78$  19.37$
  Q  0.6645  15.01$  4.41$  20.07$
  Q  -1.3290  14.9$  5.25$  20.01$
  Q  0.6645  9.03$  18.65$  2.71$
  Q  0.6645  10.31$  19.5$  2.59$
  Q  -1.3290  9.86$  18.77$  2.59$
  Q  0.6645  2.72$  5.53$  10.02$
  Q  0.6645  3.41$  6.8$  10.61$
  Q  -1.3290  3.34$  5.98$  10.39$
  Q  0.6645  14.28$  16.07$  12.05$
  Q  0.6645  14.55$  14.6$  12.3$
  Q  -1.3290  14.75$  15.37$  12.06$
  Q  0.6645  19.4$  13.18$  11.79$
  Q  0.6645  19.77$  13.53$  10.33$
  Q  -1.3290  19.27$  13.44$  11.02$
  Q  0.6645  7.24$  4.21$  11.2$
  Q  0.6645  7.28$  2.91$  10.49$
  Q  -1.3290  6.93$  3.48$  11$
  Q  0.6645  3.95$  14.45$  4.26$
  Q  0.6645  3.19$  14.86$  2.97$
  Q  -1.3290  3.69$  14.97$  3.65$
  Q  0.6645  7.24$  19.31$  3.99$
  Q  0.6645  7.89$  17.93$  4.27$
  Q  -1.3290  7.44$  18.49$  3.83$
  Q  0.6645  6.3$  5.67$  3.07$
  Q  0.6645  5.43$  5.14$  1.81$
  Q  -1.3290  5.89$  5.66$  2.3$
  Q  0.6645  5.73$  16.01$  2.76$
  Q  0.6645  7.24$  15.35$  2.92$
  Q  -1.3290  6.43$  15.5$  2.58$
  Q  0.6645  14.94$  15.95$  10.2$
  Q  0.6645  14.29$  15.84$  8.84$
  Q  -1.3290  14.79$  16.23$  9.4$
  Q  0.6645  4.9$  5.51$  13.72$
  Q  0.6645  6.15$  6.39$  13.89$
  Q  -1.3290  5.41$  6.03$  14.15$
  Q  0.6645  19.19$  10.7$  6.98$
  Q  0.6645  20.33$  11.77$  7.03$
  Q  -1.3290  19.88$  11.12$  7.3$
  Q  0.6645  10.64$  12.74$  18.41$
  Q  0.6645  11.32$  12.5$  19.78$
  Q  -1.3290  11.32$  12.69$  18.95$
  Q  0.6645  6.72$  5.07$  5.34$
  Q  0.6645  8.02$  5.36$  4.46$
  Q  -1.3290  7.27$  4.94$  4.69$
  Q  0.6645  6.86$  19.96$  8.41$
  Q  0.6645  7.33$  20.3$  9.72$
  Q  -1.3290  7.43$  19.91$  9$
  Q  0.6645  13.61$  15.2$  15.98$
  Q  0.6645  14.39$  14.23$  16.93$
  Q  -1.3290  14.29$  14.82$  16.3$
  Q  0.6645  5.72$  8.99$  2.7$
  Q  0.6645  6.26$  10.03$  1.76$
  Q  -1.3290  5.95$  9.26$  1.95$
  Q  0.6645  16.2$  12.33$  4.61$
  Q  0.6645  16.22$  13.72$  3.97$
  Q  -1.3290  16.08$  12.89$  4$
  Q  0.6645  15.16$  6.06$  15.04$
  Q  0.6645  15.61$  4.61$  15.11$
  Q  -1.3290  15.36$  5.31$  14.74$
  Q  0.6645  9.18$  2.98$  7.52$
  Q  0.6645  10.14$  4.14$  7.95$
  Q  -1.3290  9.88$  3.33$  7.83$
  Q  0.6645  4.64$  20.43$  6.96$
  Q  0.6645  5.22$  19.02$  6.5$
  Q  -1.3290  5.23$  19.83$  6.8$
  Q  0.6645  7.51$  12.01$  4.89$
  Q  0.6645  6.4$  12.25$  3.93$
  Q  -1.3290  6.72$  12.09$  4.68$
  Q  0.6645  10.59$  17.23$  4.06$
  Q  0.6645  9.88$  17.18$  5.34$
  Q  -1.3290  10.34$  16.84$  4.7$
  Q  0.6645  14.24$  18.04$  9.97$
  Q  0.6645  14.49$  19.64$  10.12$
  Q  -1.3290  14.03$  18.87$  10$
  Q  0.6645  8.57$  6.88$  17.13$
  Q  0.6645  7.39$  6.39$  18.01$
  Q  -1.3290  7.88$  6.97$  17.62$
  Q  0.6645  3.58$  19.19$  9.8$
  Q  0.6645  3.68$  20.69$  9.93$
  Q  -1.3290  3.35$  19.95$  10.06$
  Q  0.6645  12.25$  16.04$  5.37$
  Q  0.6645  13.73$  15.81$  5.68$
  Q  -1.3290  12.98$  16.21$  5.75$
  Q  0.6645  10.54$  2.6$  9.62$
  Q  0.6645  10.45$  1.25$  10.39$
  Q  -1.3290  10.5$  2.08$  10.34$
  Q  0.6645  11.27$  20.99$  12.01$
  Q  0.6645  11.31$  22.22$  12.9$
  Q  -1.3290  11.56$  21.46$  12.62$
  Q  0.6645  13.47$  1.04$  17.14$
  Q  0.6645  11.95$  1.48$  17.4$
  Q  -1.3290  12.75$  1.26$  17.6$
  Q  0.6645  5.74$  6.07$  7.17$
  Q  0.6645  4.71$  5.95$  6.16$
  Q  -1.3290  5.42$  6.2$  6.41$
  Q  0.6645  10.32$  8.91$  3.38$
  Q  0.6645  11.85$  8.39$  3.51$
  Q  -1.3290  11.07$  8.67$  3.78$
  Q  0.6645  9.24$  20.83$  8.83$
  Q  0.6645  10.59$  21.57$  8.75$
  Q  -1.3290  9.75$  21.48$  8.77$
  Q  0.6645  14.02$  7.49$  17.97$
  Q  0.6645  15.51$  7.57$  18.12$
  Q  -1.3290  14.73$  7.68$  18.38$
  Q  0.6645  19.46$  10.21$  14.96$
  Q  0.6645  18.11$  10.6$  14.19$
  Q  -1.3290  18.88$  10.23$  14.28$
  Q  0.6645  3.46$  13.13$  17.78$
  Q  0.6645  3.48$  14.53$  17.54$
  Q  -1.3290  3.79$  13.79$  17.46$
  Q  0.6645  1.3$  10.87$  7.36$
  Q  0.6645  2.73$  11.41$  7.4$
  Q  -1.3290  1.97$  11.26$  7.71$
  Q  0.6645  14.39$  18.38$  8.11$
  Q  0.6645  14.57$  17.68$  6.78$
  Q  -1.3290  14.66$  18.32$  7.29$
  Q  0.6645  2.37$  8.23$  14.02$
  Q  0.6645  3.49$  7.4$  14.64$
  Q  -1.3290  2.76$  7.82$  14.65$
  Q  0.6645  15.4$  21.84$  7$
  Q  0.6645  14.86$  20.42$  7.36$
  Q  -1.3290  15.03$  21.24$  7.5$
  Q  0.6645  15.73$  19.28$  13.85$
  Q  0.6645  16.69$  18.22$  13.32$
  Q  -1.3290  16.11$  18.53$  13.87$
  Q  0.6645  6.75$  10.28$  7.01$
  Q  0.6645  6.33$  10.33$  8.4$
  Q  -1.3290  6.29$  10.55$  7.63$
  Q  0.6645  2.44$  4.49$  13.12$
  Q  0.6645  3.41$  4.66$  11.94$
  Q  -1.3290  3.21$  4.58$  12.76$
  Q  0.6645  20.88$  11.4$  11.9$
  Q  0.6645  22.04$  11.45$  11.14$
  Q  -1.3290  21.37$  11.08$  11.4$
  Q  0.6645  4.57$  10.73$  6.54$
  Q  0.6645  3.48$  9.85$  5.72$
  Q  -1.3290  4.03$  10.52$  5.89$
  Q  0.6645  12.55$  20.35$  9.17$
  Q  0.6645  13.17$  21.6$  8.75$
  Q  -1.3290  12.57$  21.18$  9.04$
  Q  0.6645  11.75$  2.64$  6.7$
  Q  0.6645  12.92$  3.44$  6.17$
  Q  -1.3290  12.4$  2.8$  6.17$
  Q  0.6645  18.66$  11.32$  8.98$
  Q  0.6645  18.31$  11.85$  10.4$
  Q  -1.3290  18.22$  11.33$  9.73$
  Q  0.6645  17.14$  7.74$  13.52$
  Q  0.6645  16.25$  7.04$  12.5$
  Q  -1.3290  16.59$  7.69$  12.92$
  Q  0.6645  14.21$  4.98$  10.18$
  Q  0.6645  14.5$  5.85$  9.15$
  Q  -1.3290  13.99$  5.35$  9.51$
  Q  0.6645  10.17$  2.26$  17.48$
  Q  0.6645  9.97$  1.53$  16.03$
  Q  -1.3290  10.05$  1.57$  16.92$
  Q  0.6645  17.56$  3.57$  16.24$
  Q  0.6645  16.28$  3.09$  17$
  Q  -1.3290  16.74$  3.27$  16.32$
  Q  0.6645  4.88$  5.19$  9.31$
  Q  0.6645  6.14$  4.39$  9.04$
  Q  -1.3290  5.45$  4.78$  8.82$
  Q  0.6645  21.93$  10.59$  15.2$
  Q  0.6645  21.4$  9.83$  16.57$
  Q  -1.3290  21.36$  10.27$  15.82$
  Q  0.6645  17.01$  11.66$  6.71$
  Q  0.6645  17.82$  12.75$  6.21$
  Q  -1.3290  17.33$  12.1$  6.11$
  Q  0.6645  15.5$  4.92$  12.79$
  Q  0.6645  16.33$  4.61$  11.36$
  Q  -1.3290  15.82$  5.04$  11.97$
  Q  0.6645  15.79$  6.16$  4.26$
  Q  0.6645  15.15$  6.13$  5.6$
  Q  -1.3290  15.56$  6.49$  4.96$
  Q  0.6645  0.1$  12.8$  5.21$
  Q  0.6645  0.59$  13.02$  6.54$
  Q  -1.3290  0.15$  12.62$  6$
*
