! NoMOPrint PrintBasis #MINIPRINT SMALLPRINT LARGEPRINT
! ALLPOP XYZFILE
#! BP86 3-21G   TightSCF
! ENGRAD
! B3LYP NormalPNO PModel #DecontractAux
#! VerySlowConv 
 %maxcore 5000
 %scf  maxiter   500  end 

%pal
    nprocs 32
end

%basis
    NewGTO O    # New basis for oxygen
        "aug-cc-pVTZ"
    end
    NewGTO C    # New basis for carbon
        "aug-cc-pVTZ"
    end
    NewGTO H    # New basis for hydrogen
        "cc-pVTZ"
    end
end

* xyz 0   1
  C  12.46  11.15  11.7  #1
  H  13.56  10.84  11.7  #2
  H  12.09  10.85  12.67  #3
  C  11.81  10.42  10.51  #4
  H  12.45  10.79  9.74  #5
  H  12.01  9.37  10.68  #6
  C  10.29  10.69  10.19  #7
  H  9.97  10.38  9.2  #8
  H  10.04  11.77  10.15  #9
  C  9.3  9.99  11.06  #10
  H  9.53  8.92  11.16  #11
  H  8.3  10.22  10.72  #12
  O  9.36  10.55  12.35  #13
  H  8.85  11.36  12.41  #14
  O  12.47  12.56  11.51  #15
  H  11.57  12.94  11.63  #16
  O  13.63  13.09  9.08  #17
  H  13.16  12.79  9.84  #18
  H  14.13  12.37  8.72  #19
  O  10.19  13.98  14.31  #20
  H  9.77  14.63  14.89  #21
  H  10.27  14.46  13.47  #22
  O  13.52  8.08  13.11  #23
  H  13.55  8.22  12.12  #24
  H  13.32  8.98  13.46  #25
  O  14.47  7.62  10.39  #26
  H  13.7  7.29  9.85  #27
  H  14.95  8.28  9.87  #28
  O  5.37  10.61  9.31  #29
  H  5.07  10.48  10.23  #30
  H  5.92  11.39  9.35  #31
  O  9.69  6.73  9.03  #32
  H  9.18  7.49  8.78  #33
  H  9.54  6.45  9.97  #34
  O  8.97  12.92  7.75  #35
  H  9.88  13.22  7.66  #36
  H  8.53  13.66  7.32  #37
  O  14.47  5.02  11.63  #38
  H  14.56  5.95  11.64  #39
  H  15.35  4.77  11.86  #40
  O  7.9  12.72  12.45  #41
  H  7.81  13.16  13.27  #42
  H  7.24  12.02  12.54  #43
  O  15.75  9.86  9.31  #44
  H  15.41  10.22  8.49  #45
  H  16.56  9.57  8.96  #46
  O  6.73  12.96  9.86  #47
  H  7.39  13.13  9.14  #48
  H  7.1  13.06  10.78  #49
  O  2.97  10.96  7.73  #50
  H  3.83  10.94  8.12  #51
  H  3.08  10.65  6.81  #52
  O  4.66  9.35  11.44  #53
  H  5.05  9.88  12.12  #54
  H  3.76  9.12  11.71  #55
  O  15.51  6.82  14.39  #56
  H  14.93  7.24  13.77  #57
  H  15.17  5.95  14.46  #58
  O  14.54  14.02  12.67  #59
  H  13.72  13.67  12.26  #60
  H  14.66  14.92  12.44  #61
  O  9.96  9.23  14.53  #62
  H  10.7  9.77  14.97  #63
  H  9.74  9.77  13.7  #64
  O  8.45  8.71  7.61  #65
  H  7.65  8.87  8.08  #66
  H  8.35  8.01  6.96  #67
  O  9.45  5.89  11.72  #68
  H  8.48  5.93  11.99  #69
  H  9.97  6.43  12.29  #70
  O  11.64  13.5  7.24  #71
  H  11.66  14.47  7.43  #72
  H  12.33  13.19  7.88  #73
  O  14.3  10.93  6.9  #74
  H  14.72  11.04  6  #75
  H  13.67  10.18  6.86  #76
  O  14.08  10.82  14.4  #77
  H  14.57  10.82  15.26  #78
  H  13.28  11.2  14.79  #79
  O  12.68  6.42  8.71  #80
  H  12.88  5.46  8.8  #81
  H  11.73  6.52  8.66  #82
  O  10.82  15.51  12  #83
  H  10  15.88  11.68  #84
  H  11.26  16.28  12.43  #85
  O  5.3  7.91  7.83  #86
  H  5.27  8.7  8.36  #87
  H  5.3  7.39  8.58  #88
  O  11.49  11.35  15.63  #89
  H  11.47  11.47  16.59  #90
  H  10.96  12.14  15.36  #91
  O  11.14  6.66  13.84  #92
  H  10.78  7.43  14.27  #93
  H  12.07  6.85  13.57  #94
  O  14.79  15.5  7.37  #95
  H  14.22  14.89  7.89  #96
  H  15.51  14.9  7.09  #97
  O  13.17  14.58  15.21  #98
  H  13.6  14.62  14.36  #99
  H  12.25  14.59  14.99  #100
  O  8.58  14.82  16.47  #101
  H  7.74  14.55  15.95  #102
  H  8.84  14.12  17.1  #103
  Q  0.6645  9.69$  4.51$  5.7$
  Q  0.6645  10.04$  3.88$  4.44$
  Q  -1.3290  9.89$  3.83$  5.24$
  Q  0.6645  6.23$  16.43$  17.72$
  Q  0.6645  7.55$  16.47$  16.87$
  Q  -1.3290  6.82$  16.77$  17.21$
  Q  0.6645  17.25$  9.15$  12.13$
  Q  0.6645  16.68$  10.09$  11.05$
  Q  -1.3290  17.12$  9.89$  11.73$
  Q  0.6645  18.93$  10.81$  17.8$
  Q  0.6645  17.72$  11.02$  16.75$
  Q  -1.3290  18.35$  10.59$  17.18$
  Q  0.6645  13.24$  10.72$  2.73$
  Q  0.6645  11.83$  10.21$  2.71$
  Q  -1.3290  12.53$  10.45$  3.08$
  Q  0.6645  8.8$  12$  4.16$
  Q  0.6645  9.87$  13.05$  3.84$
  Q  -1.3290  9.28$  12.46$  3.63$
  Q  0.6645  15.35$  4.21$  8.96$
  Q  0.6645  15.37$  3.04$  8.08$
  Q  -1.3290  14.97$  3.61$  8.54$
  Q  0.6645  16.37$  6.66$  18.29$
  Q  0.6645  14.98$  6.43$  17.73$
  Q  -1.3290  15.68$  6.2$  18.13$
  Q  0.6645  15.18$  11.73$  3.9$
  Q  0.6645  16.51$  12.15$  4.59$
  Q  -1.3290  15.73$  11.75$  4.52$
  Q  0.6645  16.19$  18.43$  8.84$
  Q  0.6645  16.03$  16.92$  8.57$
  Q  -1.3290  16.43$  17.62$  8.87$
  Q  0.6645  5.81$  2.55$  16.32$
  Q  0.6645  4.78$  3.42$  17$
  Q  -1.3290  5.19$  3.1$  16.32$
  Q  0.6645  20.81$  8.28$  8.04$
  Q  0.6645  19.98$  7.86$  9.29$
  Q  -1.3290  20.5$  8.35$  8.83$
  Q  0.6645  3.41$  13.38$  13.52$
  Q  0.6645  2.92$  11.95$  13.36$
  Q  -1.3290  3.34$  12.64$  13.16$
  Q  0.6645  17.18$  4.7$  6.61$
  Q  0.6645  18.67$  4.98$  7.22$
  Q  -1.3290  17.91$  5.17$  6.81$
  Q  0.6645  18.61$  13.19$  4.51$
  Q  0.6645  17.76$  13.03$  3.23$
  Q  -1.3290  17.9$  13.18$  4.05$
  Q  0.6645  11.23$  3.73$  14.82$
  Q  0.6645  11.2$  5.31$  14.95$
  Q  -1.3290  11.21$  4.52$  15.24$
  Q  0.6645  15.17$  6.23$  5.12$
  Q  0.6645  15.36$  7.26$  3.98$
  Q  -1.3290  14.97$  6.85$  4.56$
  Q  0.6645  7.35$  9.06$  17.44$
  Q  0.6645  6.34$  9.16$  18.49$
  Q  -1.3290  6.69$  8.79$  17.84$
  Q  0.6645  5.16$  9.25$  16.55$
  Q  0.6645  4.41$  10.48$  16.11$
  Q  -1.3290  4.69$  9.67$  15.99$
  Q  0.6645  6.4$  6.59$  2.7$
  Q  0.6645  6.85$  7.9$  2.15$
  Q  -1.3290  6.52$  7.41$  2.74$
  Q  0.6645  4.83$  16.31$  15.98$
  Q  0.6645  3.49$  16.19$  15.22$
  Q  -1.3290  4.09$  16.58$  15.68$
  Q  0.6645  1.35$  6.29$  10.07$
  Q  0.6645  2.59$  5.88$  10.84$
  Q  -1.3290  1.78$  6.16$  10.76$
  Q  0.6645  20.65$  9.22$  15$
  Q  0.6645  19.48$  9.96$  15.61$
  Q  -1.3290  19.92$  9.61$  14.98$
  Q  0.6645  6.58$  17.65$  8.77$
  Q  0.6645  5.21$  17.02$  8.77$
  Q  -1.3290  5.76$  17.63$  8.93$
  Q  0.6645  5.21$  10.44$  20.44$
  Q  0.6645  5.58$  8.94$  20.7$
  Q  -1.3290  5.65$  9.71$  20.34$
  Q  0.6645  16.41$  2.09$  11.93$
  Q  0.6645  15.46$  2.47$  10.76$
  Q  -1.3290  16.19$  2.38$  11.14$
  Q  0.6645  9.59$  12.49$  18.9$
  Q  0.6645  9.44$  13.88$  19.48$
  Q  -1.3290  9.5$  13.32$  18.86$
  Q  0.6645  17.21$  13.7$  8.15$
  Q  0.6645  17.14$  13.55$  6.63$
  Q  -1.3290  17.2$  13.97$  7.35$
  Q  0.6645  11.1$  9.33$  22.11$
  Q  0.6645  11.93$  9.98$  21.02$
  Q  -1.3290  11.24$  9.73$  21.4$
  Q  0.6645  19.65$  10.61$  5.04$
  Q  0.6645  20.82$  11.85$  4.89$
  Q  -1.3290  20.09$  11.36$  4.71$
  Q  0.6645  16.89$  11.62$  12.61$
  Q  0.6645  16.06$  12.97$  12.72$
  Q  -1.3290  16.74$  12.43$  12.85$
  Q  0.6645  2.2$  15.46$  13.16$
  Q  0.6645  1.79$  14.87$  14.55$
  Q  -1.3290  2.33$  15.21$  13.95$
  Q  0.6645  11.57$  15.71$  4.99$
  Q  0.6645  10.66$  16.67$  5.6$
  Q  -1.3290  10.95$  15.92$  5.47$
  Q  0.6645  6.4$  6.32$  18.36$
  Q  0.6645  6.84$  6.28$  19.85$
  Q  -1.3290  6.34$  6.1$  19.18$
  Q  0.6645  16.37$  16.71$  12.36$
  Q  0.6645  15.89$  17.1$  10.92$
  Q  -1.3290  15.82$  16.79$  11.71$
  Q  0.6645  13.37$  4.37$  15.16$
  Q  0.6645  14.37$  3.56$  14.18$
  Q  -1.3290  14.13$  4.04$  14.87$
  Q  0.6645  7.59$  11.93$  17.44$
  Q  0.6645  6.98$  13.23$  17.74$
  Q  -1.3290  7$  12.5$  17.37$
  Q  0.6645  15.1$  16.72$  18.55$
  Q  0.6645  13.77$  16.35$  19.36$
  Q  -1.3290  14.41$  16.87$  19.04$
  Q  0.6645  5.81$  4.98$  4.69$
  Q  0.6645  5.6$  3.53$  4.23$
  Q  -1.3290  5.55$  4.37$  4.2$
  Q  0.6645  9.23$  6.21$  7.21$
  Q  0.6645  8.07$  5.99$  6.16$
  Q  -1.3290  8.88$  6.15$  6.45$
  Q  0.6645  17.49$  5.89$  15.73$
  Q  0.6645  18.67$  5.43$  16.43$
  Q  -1.3290  18.25$  5.96$  16.01$
  Q  0.6645  1.14$  11.14$  16.61$
  Q  0.6645  0.89$  11.41$  15.12$
  Q  -1.3290  0.97$  11.62$  15.93$
  Q  0.6645  9.35$  10.1$  16.4$
  Q  0.6645  9.1$  9.83$  17.83$
  Q  -1.3290  8.89$  10.15$  17.1$
  Q  0.6645  11.93$  21.58$  8.92$
  Q  0.6645  11.84$  20.02$  9.01$
  Q  -1.3290  11.74$  20.83$  9.26$
  Q  0.6645  1.92$  13.86$  7.11$
  Q  0.6645  0.47$  14.43$  6.95$
  Q  -1.3290  1.08$  13.84$  6.9$
  Q  0.6645  13.67$  7.83$  6.02$
  Q  0.6645  12.88$  7.62$  7.27$
  Q  -1.3290  13.09$  8.03$  6.58$
  Q  0.6645  16.2$  7.35$  1.86$
  Q  0.6645  17.25$  7.67$  2.99$
  Q  -1.3290  16.61$  7.83$  2.45$
  Q  0.6645  1.69$  7.8$  11.77$
  Q  0.6645  2.94$  7.87$  12.86$
  Q  -1.3290  2.25$  8.15$  12.37$
  Q  0.6645  8.71$  17.7$  11.43$
  Q  0.6645  7.77$  16.63$  11.1$
  Q  -1.3290  8.5$  16.98$  11.09$
  Q  0.6645  11.23$  8.15$  5.22$
  Q  0.6645  9.98$  7.18$  5.22$
  Q  -1.3290  10.54$  7.76$  4.91$
  Q  0.6645  12.5$  21.54$  14.2$
  Q  0.6645  11.11$  21.8$  13.46$
  Q  -1.3290  11.65$  21.49$  14.07$
  Q  0.6645  2.5$  10.95$  4.69$
  Q  0.6645  4.09$  11.16$  4.54$
  Q  -1.3290  3.35$  10.7$  4.68$
  Q  0.6645  13.94$  15.78$  5.52$
  Q  0.6645  13.44$  14.71$  4.6$
  Q  -1.3290  13.62$  15.51$  4.8$
  Q  0.6645  11.91$  12.92$  5.36$
  Q  0.6645  12.01$  11.95$  4.26$
  Q  -1.3290  11.96$  12.72$  4.58$
  Q  0.6645  5.28$  15.59$  11.8$
  Q  0.6645  5.23$  16.82$  12.66$
  Q  -1.3290  5.49$  16.05$  12.47$
  Q  0.6645  12.41$  7.13$  17.65$
  Q  0.6645  11.66$  6.04$  18.51$
  Q  -1.3290  11.88$  6.82$  18.25$
  Q  0.6645  11.77$  6.11$  2.35$
  Q  0.6645  10.88$  7.16$  1.8$
  Q  -1.3290  11.18$  6.39$  1.83$
  Q  0.6645  14.71$  0.38$  11.38$
  Q  0.6645  13.4$  -0.19$  10.99$
  Q  -1.3290  13.9$  0.39$  11.28$
  Q  0.6645  5.83$  10.63$  2.87$
  Q  0.6645  4.67$  10.43$  1.89$
  Q  -1.3290  5.48$  10.48$  2.14$
  Q  0.6645  7.78$  14.34$  1.61$
  Q  0.6645  7.54$  12.93$  1.9$
  Q  -1.3290  7.43$  13.58$  1.46$
  Q  0.6645  15.82$  14.31$  17.93$
  Q  0.6645  16.88$  15.37$  17.94$
  Q  -1.3290  16.54$  14.65$  18.19$
  Q  0.6645  5.75$  10.3$  14.24$
  Q  0.6645  5.01$  11.5$  13.72$
  Q  -1.3290  5.6$  10.92$  13.7$
  Q  0.6645  16.71$  5.91$  9.89$
  Q  0.6645  17.12$  5.67$  8.38$
  Q  -1.3290  16.76$  5.47$  9.17$
  Q  0.6645  8.62$  4.76$  15.11$
  Q  0.6645  8.1$  3.72$  16.07$
  Q  -1.3290  8.19$  4.06$  15.3$
  Q  0.6645  20.51$  14.73$  13.32$
  Q  0.6645  19.92$  14.48$  14.71$
  Q  -1.3290  20.55$  14.47$  14.13$
  Q  0.6645  7.71$  10.57$  20.41$
  Q  0.6645  9.24$  10.9$  20.82$
  Q  -1.3290  8.49$  10.96$  20.37$
  Q  0.6645  14.12$  19.24$  12.66$
  Q  0.6645  13.78$  17.78$  12.13$
  Q  -1.3290  13.63$  18.53$  12.53$
  Q  0.6645  7.23$  18.83$  17.42$
  Q  0.6645  8.66$  19.36$  17.03$
  Q  -1.3290  7.83$  19.44$  17.33$
  Q  0.6645  7.24$  4.31$  18.54$
  Q  0.6645  8.66$  4.01$  18.08$
  Q  -1.3290  7.85$  3.82$  18.17$
  Q  0.6645  16.49$  17.96$  17.35$
  Q  0.6645  16.02$  16.91$  16.38$
  Q  -1.3290  16.43$  17.14$  17.05$
  Q  0.6645  5.83$  7.75$  11.79$
  Q  0.6645  6.92$  7.57$  12.64$
  Q  -1.3290  6.54$  7.45$  11.94$
  Q  0.6645  6.77$  5.37$  9.24$
  Q  0.6645  6.6$  6.46$  10.23$
  Q  -1.3290  6.36$  5.98$  9.6$
  Q  0.6645  19.4$  3.44$  10.96$
  Q  0.6645  17.96$  3.88$  10.43$
  Q  -1.3290  18.76$  3.51$  10.4$
  Q  0.6645  6.88$  4.47$  13.99$
  Q  0.6645  6.16$  5.87$  13.57$
  Q  -1.3290  6.36$  5$  13.54$
  Q  0.6645  13.02$  10.55$  18.43$
  Q  0.6645  12.21$  11.39$  19.42$
  Q  -1.3290  12.4$  11.09$  18.66$
  Q  0.6645  2.26$  4.18$  13.21$
  Q  0.6645  1.44$  4.65$  12.07$
  Q  -1.3290  1.6$  4.12$  12.68$
  Q  0.6645  9.97$  4.73$  2.49$
  Q  0.6645  9.46$  3.43$  1.81$
  Q  -1.3290  9.82$  3.89$  2.42$
  Q  0.6645  19.63$  13.83$  11.24$
  Q  0.6645  19.34$  15.42$  11.15$
  Q  -1.3290  19.77$  14.67$  11.38$
  Q  0.6645  11.06$  19.34$  16.98$
  Q  0.6645  10.59$  20.14$  15.73$
  Q  -1.3290  10.54$  19.57$  16.33$
  Q  0.6645  7.01$  -0.46$  11.94$
  Q  0.6645  7.29$  0$  13.31$
  Q  -1.3290  7.3$  0.09$  12.49$
  Q  0.6645  9.54$  18.48$  13.21$
  Q  0.6645  8.3$  19.37$  13.46$
  Q  -1.3290  8.85$  18.89$  12.97$
  Q  0.6645  4.16$  19.25$  13.38$
  Q  0.6645  4.46$  18.41$  14.61$
  Q  -1.3290  4.49$  19.11$  14.14$
  Q  0.6645  17.3$  11.21$  19.9$
  Q  0.6645  16.5$  10.36$  20.83$
  Q  -1.3290  16.59$  10.83$  20.16$
  Q  0.6645  11.64$  19.03$  19.33$
  Q  0.6645  12.87$  18.13$  18.81$
  Q  -1.3290  12.28$  18.8$  18.79$
  Q  0.6645  10.73$  3.31$  18.57$
  Q  0.6645  10.91$  4.17$  17.25$
  Q  -1.3290  10.66$  3.99$  18.05$
  Q  0.6645  12.94$  4.34$  4.24$
  Q  0.6645  13.78$  5.66$  3.91$
  Q  -1.3290  13.15$  5.05$  3.82$
  Q  0.6645  6.06$  7.13$  6.25$
  Q  0.6645  6.4$  7.15$  4.81$
  Q  -1.3290  6.34$  6.8$  5.57$
  Q  0.6645  19.24$  12.45$  18.94$
  Q  0.6645  17.91$  13.18$  18.98$
  Q  -1.3290  18.53$  12.71$  19.29$
  Q  0.6645  18.39$  6.76$  5.37$
  Q  0.6645  18.48$  8.25$  4.87$
  Q  -1.3290  18.56$  7.38$  4.83$
  Q  0.6645  20.15$  13.56$  6.97$
  Q  0.6645  19.25$  14.66$  7.12$
  Q  -1.3290  19.89$  14.31$  6.77$
  Q  0.6645  5.83$  14.26$  19.34$
  Q  0.6645  4.68$  14.23$  18.29$
  Q  -1.3290  5.39$  14.54$  18.68$
  Q  0.6645  15.03$  1.27$  14.22$
  Q  0.6645  14.42$  1.59$  12.83$
  Q  -1.3290  14.93$  1.7$  13.5$
  Q  0.6645  4.31$  14.88$  6.49$
  Q  0.6645  3.91$  14.73$  7.94$
  Q  -1.3290  3.78$  14.86$  7.12$
  Q  0.6645  16.56$  12.2$  14.71$
  Q  0.6645  15.76$  12.39$  16.03$
  Q  -1.3290  16.41$  12.14$  15.54$
  Q  0.6645  14.68$  16.32$  3.21$
  Q  0.6645  15.96$  16.25$  2.4$
  Q  -1.3290  15.18$  16.48$  2.54$
  Q  0.6645  1.67$  9.78$  9.1$
  Q  0.6645  0.33$  9.29$  9.49$
  Q  -1.3290  0.98$  9.77$  9.57$
  Q  0.6645  6.97$  9.36$  0.91$
  Q  0.6645  7.87$  8.43$  0.11$
  Q  -1.3290  7.61$  8.89$  0.78$
  Q  0.6645  10.92$  1.03$  11.51$
  Q  0.6645  9.56$  0.37$  11.78$
  Q  -1.3290  10.3$  0.74$  11.97$
  Q  0.6645  7.38$  2.35$  7.87$
  Q  0.6645  6.16$  1.5$  7.51$
  Q  -1.3290  6.99$  1.68$  7.57$
  Q  0.6645  13.61$  12.55$  21.22$
  Q  0.6645  12.18$  12.42$  21.83$
  Q  -1.3290  12.81$  12.29$  21.24$
  Q  0.6645  8.56$  17.02$  9.06$
  Q  0.6645  8.31$  16.6$  7.6$
  Q  -1.3290  8.23$  17.11$  8.28$
  Q  0.6645  15.4$  3.47$  5.58$
  Q  0.6645  14.68$  4.18$  6.68$
  Q  -1.3290  15.22$  4.12$  6.07$
  Q  0.6645  2.98$  7.34$  6.76$
  Q  0.6645  3.02$  7.23$  5.28$
  Q  -1.3290  2.71$  7.05$  6.01$
  Q  0.6645  0.45$  10.81$  13.33$
  Q  0.6645  1.58$  9.78$  13.21$
  Q  -1.3290  1.2$  10.47$  13.52$
  Q  0.6645  8.78$  3.33$  9.29$
  Q  0.6645  7.27$  3.2$  9.87$
  Q  -1.3290  7.89$  3.44$  9.31$
  Q  0.6645  20.12$  10.95$  13.52$
  Q  0.6645  20.71$  12.32$  13.41$
  Q  -1.3290  20.59$  11.52$  13.18$
  Q  0.6645  21.94$  12.53$  8.22$
  Q  0.6645  21.96$  11.22$  9.15$
  Q  -1.3290  21.65$  11.94$  8.77$
  Q  0.6645  5.66$  14.27$  9.85$
  Q  0.6645  4.19$  14.27$  10.15$
  Q  -1.3290  4.9$  14.64$  9.95$
  Q  0.6645  6.88$  7.55$  15.24$
  Q  0.6645  7.97$  8.36$  14.57$
  Q  -1.3290  7.23$  7.97$  14.62$
  Q  0.6645  18.83$  14.66$  16.23$
  Q  0.6645  17.7$  13.84$  15.6$
  Q  -1.3290  18.38$  14.38$  15.62$
  Q  0.6645  4.75$  2.28$  10.34$
  Q  0.6645  3.94$  2.91$  9.28$
  Q  -1.3290  4.17$  2.3$  9.76$
  Q  0.6645  5.85$  15.72$  4.31$
  Q  0.6645  5$  14.58$  3.65$
  Q  -1.3290  5.37$  15.02$  4.28$
  Q  0.6645  5.67$  12.92$  5.24$
  Q  0.6645  6.57$  11.72$  5.25$
  Q  -1.3290  5.84$  12.11$  5.12$
  Q  0.6645  6.85$  1.9$  11.66$
  Q  0.6645  6.7$  3.34$  12.04$
  Q  -1.3290  6.61$  2.67$  11.52$
  Q  0.6645  14.14$  8.25$  17.18$
  Q  0.6645  14.07$  7.53$  15.78$
  Q  -1.3290  13.87$  7.66$  16.59$
  Q  0.6645  3.46$  7.01$  17.85$
  Q  0.6645  3.74$  8.19$  16.86$
  Q  -1.3290  3.62$  7.37$  17.1$
  Q  0.6645  14.04$  9.01$  19.21$
  Q  0.6645  15.13$  9.84$  18.78$
  Q  -1.3290  14.46$  9.42$  18.65$
  Q  0.6645  13.08$  1.91$  8.41$
  Q  0.6645  12.46$  1.64$  7$
  Q  -1.3290  12.68$  1.44$  7.79$
  Q  0.6645  7.98$  16.56$  3.64$
  Q  0.6645  7.79$  17.78$  4.64$
  Q  -1.3290  7.66$  16.99$  4.31$
  Q  0.6645  13.87$  13.04$  17.84$
  Q  0.6645  13.93$  13.34$  16.31$
  Q  -1.3290  14.23$  13.06$  17.07$
  Q  0.6645  8.96$  6.59$  20.72$
  Q  0.6645  8.31$  7.68$  19.99$
  Q  -1.3290  8.36$  7.13$  20.57$
  Q  0.6645  20.1$  6.5$  14.39$
  Q  0.6645  20.72$  6.49$  13.04$
  Q  -1.3290  20.73$  6.42$  13.87$
  Q  0.6645  9.12$  0.79$  14.05$
  Q  0.6645  8.9$  2.16$  14.72$
  Q  -1.3290  9.07$  1.35$  14.68$
  Q  0.6645  5.95$  5.13$  15.8$
  Q  0.6645  5.03$  6.28$  16.31$
  Q  -1.3290  5.77$  5.89$  16.12$
  Q  0.6645  12.49$  1.87$  4.97$
  Q  0.6645  11.67$  3.01$  5.61$
  Q  -1.3290  12.36$  2.65$  5.3$
  Q  0.6645  18.06$  10.89$  8.41$
  Q  0.6645  19.08$  9.75$  8.54$
  Q  -1.3290  18.38$  10.13$  8.25$
  Q  0.6645  16.95$  9.85$  5.04$
  Q  0.6645  17.66$  9.82$  6.44$
  Q  -1.3290  17.59$  9.73$  5.6$
  Q  0.6645  19.9$  12.03$  9.8$
  Q  0.6645  19.41$  11.9$  11.32$
  Q  -1.3290  19.34$  12.07$  10.47$
  Q  0.6645  18.59$  7.32$  11.46$
  Q  0.6645  19$  5.99$  10.81$
  Q  -1.3290  18.75$  6.82$  10.82$
  Q  0.6645  11.09$  18.65$  7.31$
  Q  0.6645  12.52$  18.14$  7.19$
  Q  -1.3290  11.88$  18.49$  7.6$
  Q  0.6645  2.31$  14.37$  17.39$
  Q  0.6645  2.49$  13.29$  18.49$
  Q  -1.3290  2.74$  13.88$  17.92$
  Q  0.6645  18.41$  17.13$  9.76$
  Q  0.6645  19.95$  17.3$  9.61$
  Q  -1.3290  19.23$  17.1$  9.98$
  Q  0.6645  15.17$  11.23$  1.49$
  Q  0.6645  14.25$  12.46$  1.72$
  Q  -1.3290  14.61$  11.71$  1.88$
  Q  0.6645  5.75$  13.74$  14.87$
  Q  0.6645  6.2$  14.96$  14$
  Q  -1.3290  6.29$  14.31$  14.54$
  Q  0.6645  16.18$  19.84$  13.52$
  Q  0.6645  15.94$  20.56$  12.2$
  Q  -1.3290  15.7$  20.2$  12.94$
  Q  0.6645  7.12$  21.61$  8.3$
  Q  0.6645  7.7$  20.27$  8.83$
  Q  -1.3290  7.15$  20.77$  8.42$
  Q  0.6645  2.87$  12.47$  10.75$
  Q  0.6645  2.69$  12.13$  9.32$
  Q  -1.3290  2.78$  12.66$  9.95$
  Q  0.6645  17.34$  7.78$  13.88$
  Q  0.6645  18.67$  8.7$  13.71$
  Q  -1.3290  18.08$  8.08$  13.48$
  Q  0.6645  9.99$  12.34$  1.43$
  Q  0.6645  9.69$  13.39$  0.29$
  Q  -1.3290  10.16$  12.89$  0.8$
  Q  0.6645  9.95$  20.47$  10.2$
  Q  0.6645  9.36$  19.87$  11.41$
  Q  -1.3290  9.33$  20.34$  10.71$
  Q  0.6645  18.21$  7.34$  17.65$
  Q  0.6645  17.91$  8.76$  17.96$
  Q  -1.3290  17.87$  7.93$  18.09$
  Q  0.6645  16.49$  13.63$  10.73$
  Q  0.6645  17.53$  12.8$  10.25$
  Q  -1.3290  16.87$  13.26$  10.12$
  Q  0.6645  2.56$  5.09$  15.25$
  Q  0.6645  3.71$  4.01$  15.34$
  Q  -1.3290  3.21$  4.6$  14.94$
  Q  0.6645  3$  17.72$  11.39$
  Q  0.6645  4.36$  18.03$  10.66$
  Q  -1.3290  3.81$  18.05$  11.31$
  Q  0.6645  15.68$  12.22$  20.68$
  Q  0.6645  15.51$  13.76$  20.78$
  Q  -1.3290  15.48$  12.95$  21.08$
  Q  0.6645  11.98$  14.12$  1.5$
  Q  0.6645  12.52$  13.62$  2.73$
  Q  -1.3290  12.57$  14.05$  2.02$
  Q  0.6645  11.21$  18.21$  14.76$
  Q  0.6645  11.85$  18.18$  13.43$
  Q  -1.3290  11.27$  17.94$  13.96$
  Q  0.6645  11.04$  3.04$  9.63$
  Q  0.6645  10.79$  2.01$  8.58$
  Q  -1.3290  10.58$  2.59$  9.13$
  Q  0.6645  12.31$  15.6$  20.12$
  Q  0.6645  12.69$  14.13$  20.17$
  Q  -1.3290  12.66$  14.89$  19.84$
  Q  0.6645  18.17$  18.09$  7.57$
  Q  0.6645  19.48$  18.54$  7$
  Q  -1.3290  18.64$  18.48$  7.01$
  Q  0.6645  4.03$  6.46$  14.46$
  Q  0.6645  4.55$  7.95$  14.52$
  Q  -1.3290  4.16$  7.26$  14.19$
  Q  0.6645  4.85$  5.35$  10.61$
  Q  0.6645  4.59$  4.97$  12.05$
  Q  -1.3290  4.39$  5.13$  11.27$
  Q  0.6645  10.9$  2.18$  13.43$
  Q  0.6645  11.64$  3.26$  12.67$
  Q  -1.3290  11.43$  2.81$  13.35$
  Q  0.6645  8.92$  18.59$  6.27$
  Q  0.6645  9.92$  19.15$  5.37$
  Q  -1.3290  9.66$  18.59$  5.88$
  Q  0.6645  12.75$  4.4$  11.21$
  Q  0.6645  11.09$  4.74$  11.06$
  Q  -1.3290  11.85$  4.29$  11.01$
  Q  0.6645  10.3$  9.11$  19.75$
  Q  0.6645  10.51$  8.07$  18.72$
  Q  -1.3290  10.12$  8.72$  19.06$
  Q  0.6645  8.6$  11.66$  6.58$
  Q  0.6645  8.4$  10.19$  6.05$
  Q  -1.3290  8.34$  11.04$  6.04$
  Q  0.6645  9.33$  9.18$  1.82$
  Q  0.6645  10.22$  8.67$  3.07$
  Q  -1.3290  10.06$  8.97$  2.26$
  Q  0.6645  3.8$  13$  16.28$
  Q  0.6645  5.28$  12.59$  16.48$
  Q  -1.3290  4.55$  12.64$  16.08$
  Q  0.6645  11.35$  16.92$  8.58$
  Q  0.6645  11.18$  15.85$  9.72$
  Q  -1.3290  11.41$  16.13$  8.95$
  Q  0.6645  9.21$  15.22$  6.02$
  Q  0.6645  7.83$  15.46$  5.51$
  Q  -1.3290  8.38$  15.22$  6.08$
  Q  0.6645  13.6$  16.67$  15.5$
  Q  0.6645  14.19$  17.46$  14.32$
  Q  -1.3290  14.17$  17.16$  15.11$
  Q  0.6645  7.32$  12.69$  20.28$
  Q  0.6645  7.18$  13.6$  21.46$
  Q  -1.3290  6.94$  13.29$  20.72$
  Q  0.6645  4.78$  8.03$  3.29$
  Q  0.6645  3.57$  9$  3.8$
  Q  -1.3290  3.95$  8.29$  3.46$
  Q  0.6645  13.95$  7.45$  20.94$
  Q  0.6645  12.66$  7.37$  19.97$
  Q  -1.3290  13.25$  7.72$  20.51$
  Q  0.6645  0.99$  14.06$  9.89$
  Q  0.6645  -0.35$  14.78$  10.18$
  Q  -1.3290  0.4$  14.7$  9.84$
  Q  0.6645  17.97$  5.14$  13.12$
  Q  0.6645  17.63$  3.77$  12.53$
  Q  -1.3290  17.52$  4.62$  12.65$
  Q  0.6645  17.51$  15.94$  14.29$
  Q  0.6645  17.3$  17.52$  14.26$
  Q  -1.3290  17.53$  16.76$  13.95$
*
