! NoMOPrint PrintBasis #MINIPRINT SMALLPRINT LARGEPRINT
! ALLPOP XYZFILE
#! BP86 3-21G   TightSCF
! ENGRAD
! B3LYP NormalPNO PModel #DecontractAux
#! VerySlowConv 
 %maxcore 5000
 %scf  maxiter   500  end 

%pal
    nprocs 32
end

%basis
    NewGTO O    # New basis for oxygen
        "aug-cc-pVTZ"
    end
    NewGTO C    # New basis for carbon
        "aug-cc-pVTZ"
    end
    NewGTO H    # New basis for hydrogen
        "cc-pVTZ"
    end
end

* xyz 0   1
  C  12.77  10.38  11.09  #1
  H  13.34  10.68  10.21  #2
  H  12.35  9.35  10.86  #3
  C  11.55  11.35  11.41  #4
  H  11.13  11.01  12.32  #5
  H  11.75  12.36  11.63  #6
  C  10.56  11.09  10.32  #7
  H  10.61  10.02  10.03  #8
  H  10.85  11.66  9.51  #9
  C  9.15  11.41  10.76  #10
  H  9.06  12.49  10.95  #11
  H  8.87  10.89  11.63  #12
  O  8.21  11.24  9.69  #13
  H  7.35  11.31  10.12  #14
  O  13.68  10.46  12.21  #15
  H  14.49  10.12  11.86  #16
  O  13.97  6.47  12.32  #17
  H  13.72  6.42  11.33  #18
  H  13.51  7.28  12.66  #19
  O  10.89  14.54  9.62  #20
  H  10.09  14.92  9.98  #21
  H  11.55  14.66  10.29  #22
  O  13.14  14.55  11.68  #23
  H  13.64  15.36  11.79  #24
  H  13.7  13.98  11.14  #25
  O  8.16  15.03  10.18  #26
  H  7.65  14.38  10.6  #27
  H  7.77  15.85  10.54  #28
  O  13.29  7.19  9.68  #29
  H  13.56  6.77  8.88  #30
  H  13.13  8.05  9.3  #31
  O  15.67  8.96  11.21  #32
  H  15.97  9.74  10.73  #33
  H  15.28  8.36  10.62  #34
  O  14.44  13.2  9.66  #35
  H  14.92  12.53  10.15  #36
  H  14.11  12.83  8.83  #37
  O  13.49  17.28  14.15  #38
  H  13.13  16.42  14.38  #39
  H  14.3  17.02  13.63  #40
  O  16.87  6.01  12.6  #41
  H  16.09  6.56  12.48  #42
  H  17.21  6.27  13.46  #43
  O  5.77  9.22  7.94  #44
  H  6.51  9.35  7.29  #45
  H  5.71  10.07  8.41  #46
  O  9.94  12.86  14.63  #47
  H  10.71  13.43  14.62  #48
  H  10.13  11.87  14.58  #49
  O  11.2  12.88  7.48  #50
  H  10.43  12.28  7.52  #51
  H  11.05  13.39  8.34  #52
  O  5.58  10.77  10.6  #53
  H  6.03  10.25  11.3  #54
  H  4.62  10.87  10.73  #55
  O  6.39  13.37  11.64  #56
  H  5.62  13.86  11.9  #57
  H  5.93  12.58  11.27  #58
  O  7.26  14.93  7.39  #59
  H  7.94  15.32  6.89  #60
  H  7.66  14.63  8.22  #61
  O  16.72  11.59  10.68  #62
  H  17.01  11.62  11.59  #63
  H  17.36  12.06  10.1  #64
  O  15.77  15.59  9  #65
  H  15.38  14.76  9.18  #66
  H  15.02  16.13  9.19  #67
  O  14.05  6.14  6.54  #68
  H  14.28  7.05  6.25  #69
  H  14.96  5.88  6.66  #70
  O  5.74  16.77  10.56  #71
  H  5.54  16.54  9.64  #72
  H  5.33  16.03  11  #73
  O  12.66  8.61  13.78  #74
  H  13.12  9.34  13.36  #75
  H  11.69  8.75  13.72  #76
  O  13.28  12.85  13.97  #77
  H  13.58  12.31  13.22  #78
  H  13.09  13.68  13.57  #79
  O  15.39  15.96  12.77  #80
  H  15.66  15.07  12.99  #81
  H  16.02  16.32  12.14  #82
  O  10.83  6.42  10.91  #83
  H  11.56  6.71  10.44  #84
  H  10.82  5.49  10.67  #85
  O  7.94  16.86  12.72  #86
  H  8  15.92  12.79  #87
  H  7.26  17.15  12.04  #88
  O  9.1  11.15  7.21  #89
  H  8.63  11.7  6.55  #90
  H  8.6  11.24  8.04  #91
  O  14.09  4.37  14.59  #92
  H  13.98  4.97  13.81  #93
  H  13.27  3.94  14.71  #94
  O  13.4  7.04  15.81  #95
  H  12.95  7.43  15.06  #96
  H  13.23  7.68  16.55  #97
  O  13.23  9.37  7.72  #98
  H  13.78  10.1  7.53  #99
  H  12.45  9.56  7.19  #100
  O  13.89  11.88  7.08  #101
  H  13.02  12.35  6.96  #102
  H  14.46  12.08  6.34  #103
  Q  0.6645  16.45$  3.36$  12.44$
  Q  0.6645  16.56$  2.23$  11.34$
  Q  -1.3290  16.32$  2.99$  11.69$
  Q  0.6645  18.09$  11.64$  15.76$
  Q  0.6645  16.92$  10.62$  15.49$
  Q  -1.3290  17.42$  11.3$  15.33$
  Q  0.6645  19.03$  7.62$  8.03$
  Q  0.6645  20.45$  8.22$  7.56$
  Q  -1.3290  19.73$  7.74$  7.49$
  Q  0.6645  1.3$  4.81$  13$
  Q  0.6645  2.33$  3.82$  12.28$
  Q  -1.3290  2.04$  4.53$  12.68$
  Q  0.6645  14.59$  16.57$  17.61$
  Q  0.6645  13.46$  15.62$  17.88$
  Q  -1.3290  14.05$  16.16$  18.11$
  Q  0.6645  9.05$  8.67$  0.45$
  Q  0.6645  8.45$  10.04$  1.1$
  Q  -1.3290  9.06$  9.46$  0.85$
  Q  0.6645  8.97$  4.78$  14.63$
  Q  0.6645  8.73$  4.83$  13.07$
  Q  -1.3290  9.16$  4.69$  13.8$
  Q  0.6645  9.55$  5.81$  16.32$
  Q  0.6645  9.83$  7.13$  16.83$
  Q  -1.3290  9.36$  6.6$  16.4$
  Q  0.6645  7.24$  1.4$  8.36$
  Q  0.6645  7.37$  2.94$  8.29$
  Q  -1.3290  6.98$  2.19$  8.19$
  Q  0.6645  8.36$  15.11$  17.75$
  Q  0.6645  8.85$  15.9$  18.93$
  Q  -1.3290  8.45$  15.81$  18.23$
  Q  0.6645  9.78$  16.8$  12.53$
  Q  0.6645  11.1$  17.19$  11.89$
  Q  -1.3290  10.6$  16.74$  12.39$
  Q  0.6645  21.16$  3.56$  13.02$
  Q  0.6645  20.5$  4.9$  12.8$
  Q  -1.3290  21.04$  4.39$  13.2$
  Q  0.6645  19.28$  17.93$  8.8$
  Q  0.6645  17.92$  17.96$  8.13$
  Q  -1.3290  18.5$  18.19$  8.69$
  Q  0.6645  16.85$  12.96$  18.19$
  Q  0.6645  18.24$  13.48$  18.71$
  Q  -1.3290  17.67$  13.17$  18.13$
  Q  0.6645  11.37$  16.98$  4.55$
  Q  0.6645  9.81$  17.35$  4.35$
  Q  -1.3290  10.61$  17.35$  4.74$
  Q  0.6645  11.52$  19.48$  10.56$
  Q  0.6645  10.18$  18.99$  9.83$
  Q  -1.3290  10.87$  18.94$  10.37$
  Q  0.6645  7.67$  7.65$  15.43$
  Q  0.6645  7.02$  8.13$  14.18$
  Q  -1.3290  7.19$  8.16$  15$
  Q  0.6645  7.85$  17.25$  3.77$
  Q  0.6645  7.93$  15.92$  2.91$
  Q  -1.3290  8.18$  16.69$  3.2$
  Q  0.6645  10.94$  9.08$  5.07$
  Q  0.6645  12.27$  9.86$  5.21$
  Q  -1.3290  11.48$  9.65$  5.35$
  Q  0.6645  18.8$  15.26$  13.65$
  Q  0.6645  18.81$  15.56$  12.02$
  Q  -1.3290  19.1$  15.31$  12.82$
  Q  0.6645  6.87$  5.3$  4.8$
  Q  0.6645  6.37$  6.16$  5.99$
  Q  -1.3290  6.72$  6.01$  5.22$
  Q  0.6645  18.04$  6.27$  15.8$
  Q  0.6645  19.16$  6.72$  14.82$
  Q  -1.3290  18.37$  6.7$  15.1$
  Q  0.6645  7.61$  13.92$  15.8$
  Q  0.6645  8.93$  13.19$  16.12$
  Q  -1.3290  8.26$  13.63$  16.31$
  Q  0.6645  6.43$  16.07$  18.62$
  Q  0.6645  5.1$  16.38$  17.98$
  Q  -1.3290  5.61$  16.06$  18.54$
  Q  0.6645  3.01$  6.19$  13.49$
  Q  0.6645  4.43$  5.8$  13.92$
  Q  -1.3290  3.81$  6.33$  13.72$
  Q  0.6645  3.17$  9.23$  6.02$
  Q  0.6645  2.66$  9.37$  4.63$
  Q  -1.3290  2.97$  9.63$  5.32$
  Q  0.6645  14.09$  2.89$  8.65$
  Q  0.6645  14.55$  2.99$  7.16$
  Q  -1.3290  14.52$  3.19$  7.99$
  Q  0.6645  6.83$  13.49$  6.28$
  Q  0.6645  6.3$  12.08$  5.76$
  Q  -1.3290  6.85$  12.73$  5.92$
  Q  0.6645  17.42$  6.49$  9.49$
  Q  0.6645  18$  7.91$  9.87$
  Q  -1.3290  17.74$  7.27$  9.36$
  Q  0.6645  12.39$  5.31$  16.12$
  Q  0.6645  11.9$  4.64$  17.35$
  Q  -1.3290  11.85$  4.83$  16.53$
  Q  0.6645  19.48$  3.49$  16.49$
  Q  0.6645  19.89$  3.82$  15.07$
  Q  -1.3290  19.38$  3.8$  15.7$
  Q  0.6645  8.56$  7.15$  8.88$
  Q  0.6645  9.32$  7.04$  10.19$
  Q  -1.3290  8.65$  7.15$  9.72$
  Q  0.6645  15.78$  4.41$  17.28$
  Q  0.6645  14.62$  4.26$  16.42$
  Q  -1.3290  15.02$  4.17$  17.13$
  Q  0.6645  5.39$  17.9$  14.61$
  Q  0.6645  4.18$  17.1$  14.05$
  Q  -1.3290  4.6$  17.8$  14.33$
  Q  0.6645  4.09$  12.52$  1.81$
  Q  0.6645  4.36$  11.22$  2.5$
  Q  -1.3290  4.41$  12.03$  2.41$
  Q  0.6645  12.05$  12.62$  19.49$
  Q  0.6645  12.4$  11.08$  19.07$
  Q  -1.3290  12.07$  11.91$  18.99$
  Q  0.6645  3.61$  15.04$  12.6$
  Q  0.6645  3.45$  14.43$  11.14$
  Q  -1.3290  3.82$  14.87$  11.78$
  Q  0.6645  17.88$  4.58$  17.79$
  Q  0.6645  17.19$  5.95$  18.2$
  Q  -1.3290  17.39$  5.3$  17.69$
  Q  0.6645  5.5$  16.64$  4.36$
  Q  0.6645  4.82$  17.58$  3.2$
  Q  -1.3290  5.23$  17.35$  3.96$
  Q  0.6645  4.64$  12.7$  15.49$
  Q  0.6645  4.16$  12.43$  14.02$
  Q  -1.3290  4.58$  12.87$  14.65$
  Q  0.6645  12.12$  20.07$  6.38$
  Q  0.6645  11.31$  18.82$  5.91$
  Q  -1.3290  11.48$  19.5$  6.37$
  Q  0.6645  8.81$  2.8$  16.04$
  Q  0.6645  10.13$  3.74$  16.32$
  Q  -1.3290  9.28$  3.49$  16.36$
  Q  0.6645  1.04$  8.96$  7.82$
  Q  0.6645  -0.07$  10.09$  8.15$
  Q  -1.3290  0.25$  9.3$  8.01$
  Q  0.6645  10.24$  11.42$  19.5$
  Q  0.6645  9.02$  10.96$  18.76$
  Q  -1.3290  9.48$  11.15$  19.45$
  Q  0.6645  18.83$  11.18$  7.31$
  Q  0.6645  19.38$  11.64$  5.99$
  Q  -1.3290  18.76$  11.49$  6.52$
  Q  0.6645  4.07$  14.55$  8.95$
  Q  0.6645  2.6$  14.29$  9.18$
  Q  -1.3290  3.41$  14.09$  9.21$
  Q  0.6645  15.69$  15.58$  4.59$
  Q  0.6645  15.19$  14.99$  3.17$
  Q  -1.3290  15.4$  14.97$  4.02$
  Q  0.6645  2.42$  5.07$  6.64$
  Q  0.6645  3.07$  6.25$  5.84$
  Q  -1.3290  2.47$  5.87$  6.34$
  Q  0.6645  12.51$  13.74$  16.19$
  Q  0.6645  12.64$  13.16$  17.58$
  Q  -1.3290  12.74$  13.74$  17$
  Q  0.6645  13.89$  3.35$  11.58$
  Q  0.6645  13.47$  2.17$  10.82$
  Q  -1.3290  13.32$  2.87$  11.2$
  Q  0.6645  13.19$  15.3$  4.82$
  Q  0.6645  12$  14.99$  3.95$
  Q  -1.3290  12.56$  15.5$  4.3$
  Q  0.6645  13.3$  2.05$  5.65$
  Q  0.6645  14.04$  3.11$  4.66$
  Q  -1.3290  13.93$  2.39$  5.13$
  Q  0.6645  6.91$  13.85$  13.48$
  Q  0.6645  8.35$  13.61$  14.01$
  Q  -1.3290  7.65$  14.03$  13.9$
  Q  0.6645  6.64$  21.07$  9.42$
  Q  0.6645  7.78$  20.87$  8.47$
  Q  -1.3290  7.32$  21.33$  8.99$
  Q  0.6645  4.95$  6.69$  4.45$
  Q  0.6645  4.07$  6.63$  3.24$
  Q  -1.3290  4.25$  6.81$  4.02$
  Q  0.6645  14.09$  1.21$  16.25$
  Q  0.6645  15.13$  1.93$  15.35$
  Q  -1.3290  14.75$  1.28$  15.73$
  Q  0.6645  3.91$  18.62$  17.2$
  Q  0.6645  3.98$  17.5$  16.16$
  Q  -1.3290  4.06$  17.84$  16.94$
  Q  0.6645  12.07$  21.44$  12.1$
  Q  0.6645  13.02$  21.56$  11.05$
  Q  -1.3290  12.33$  21.27$  11.34$
  Q  0.6645  18.03$  6.5$  5$
  Q  0.6645  19.28$  7.17$  5.5$
  Q  -1.3290  18.8$  6.83$  4.93$
  Q  0.6645  7.83$  5.06$  8.1$
  Q  0.6645  7.7$  4.87$  9.72$
  Q  -1.3290  7.54$  4.71$  8.87$
  Q  0.6645  4.63$  10.97$  16.97$
  Q  0.6645  3.32$  11.9$  17.03$
  Q  -1.3290  4.18$  11.71$  17.06$
  Q  0.6645  15.59$  7.41$  4.27$
  Q  0.6645  15.65$  8.55$  5.42$
  Q  -1.3290  15.29$  8.02$  4.81$
  Q  0.6645  15.46$  7.02$  19$
  Q  0.6645  14.64$  6.47$  17.87$
  Q  -1.3290  14.91$  7.06$  18.39$
  Q  0.6645  15.07$  0.65$  10.28$
  Q  0.6645  14.51$  0.69$  8.96$
  Q  -1.3290  14.44$  0.72$  9.78$
  Q  0.6645  10.23$  15.87$  5.72$
  Q  0.6645  9.94$  14.52$  6.55$
  Q  -1.3290  9.76$  15.22$  6.04$
  Q  0.6645  5.98$  8.05$  11.89$
  Q  0.6645  7.33$  7.91$  11.19$
  Q  -1.3290  6.81$  8.11$  11.82$
  Q  0.6645  5.16$  6.37$  17.86$
  Q  0.6645  3.98$  6.68$  18.59$
  Q  -1.3290  4.51$  6.84$  18.01$
  Q  0.6645  7.61$  18.06$  16.66$
  Q  0.6645  6.07$  18.18$  16.93$
  Q  -1.3290  6.84$  18.36$  16.59$
  Q  0.6645  1.79$  18.17$  11.27$
  Q  0.6645  0.7$  17.2$  11.73$
  Q  -1.3290  1.08$  17.7$  11.16$
  Q  0.6645  9.91$  9.38$  19.96$
  Q  0.6645  10.99$  8.42$  20.58$
  Q  -1.3290  10.46$  8.69$  19.98$
  Q  0.6645  10.71$  1.83$  9.16$
  Q  0.6645  11.52$  0.51$  9.58$
  Q  -1.3290  11.23$  1.16$  9.06$
  Q  0.6645  8.29$  6.39$  6.33$
  Q  0.6645  9.62$  6.17$  6.97$
  Q  -1.3290  8.8$  6.31$  6.98$
  Q  0.6645  17.19$  4.74$  5.69$
  Q  0.6645  17.36$  5.09$  7.23$
  Q  -1.3290  17.09$  5.2$  6.43$
  Q  0.6645  21.3$  13.55$  15.47$
  Q  0.6645  20.71$  12.62$  14.4$
  Q  -1.3290  21.32$  12.98$  14.81$
  Q  0.6645  4.72$  13.19$  4.41$
  Q  0.6645  4.05$  13.41$  5.76$
  Q  -1.3290  4.34$  13.65$  5.01$
  Q  0.6645  15.78$  8.41$  15.96$
  Q  0.6645  17.2$  8.32$  15.54$
  Q  -1.3290  16.57$  8.64$  15.95$
  Q  0.6645  10.67$  19.65$  13.44$
  Q  0.6645  10.08$  19.51$  12.04$
  Q  -1.3290  10.04$  19.64$  12.86$
  Q  0.6645  9.77$  2.89$  10.5$
  Q  0.6645  11.28$  3.27$  10.29$
  Q  -1.3290  10.43$  3.36$  10.24$
  Q  0.6645  3.21$  2.7$  10.37$
  Q  0.6645  4.01$  3.68$  11.28$
  Q  -1.3290  3.5$  3$  11.08$
  Q  0.6645  19.54$  6.93$  18.57$
  Q  0.6645  21.13$  7.06$  18.64$
  Q  -1.3290  20.37$  6.74$  18.46$
  Q  0.6645  21.81$  15.52$  16.6$
  Q  0.6645  20.37$  15.11$  16.3$
  Q  -1.3290  21.15$  15$  16.59$
  Q  0.6645  14.84$  5.22$  3.55$
  Q  0.6645  14.55$  4.08$  2.63$
  Q  -1.3290  14.44$  4.53$  3.32$
  Q  0.6645  6.55$  18.42$  4.88$
  Q  0.6645  7.4$  19.58$  5.24$
  Q  -1.3290  7.27$  18.79$  5.15$
  Q  0.6645  5.79$  4.99$  9.5$
  Q  0.6645  4.89$  5.82$  10.49$
  Q  -1.3290  5.06$  5.19$  9.91$
  Q  0.6645  7.49$  5.13$  16.58$
  Q  0.6645  6.35$  4.13$  16.08$
  Q  -1.3290  6.69$  4.88$  16.32$
  Q  0.6645  11.37$  4.9$  2.71$
  Q  0.6645  12.64$  5.09$  3.49$
  Q  -1.3290  11.83$  5.24$  3.31$
  Q  0.6645  12.24$  18$  17.55$
  Q  0.6645  12.59$  19.26$  18.32$
  Q  -1.3290  12.21$  18.81$  17.69$
  Q  0.6645  20.43$  3.44$  9.47$
  Q  0.6645  19.98$  3.17$  10.89$
  Q  -1.3290  20.26$  2.94$  10.14$
  Q  0.6645  2.57$  15.49$  14.89$
  Q  0.6645  3.92$  14.58$  14.65$
  Q  -1.3290  3.31$  15.2$  14.48$
  Q  0.6645  19.54$  5.31$  10.85$
  Q  0.6645  18.32$  5.07$  11.88$
  Q  -1.3290  19.1$  4.94$  11.5$
  Q  0.6645  2.23$  4.91$  9.47$
  Q  0.6645  1.8$  5.15$  10.97$
  Q  -1.3290  1.77$  5.21$  10.12$
  Q  0.6645  12.5$  8.76$  3.18$
  Q  0.6645  13.91$  8.95$  3.75$
  Q  -1.3290  13.26$  9.13$  3.25$
  Q  0.6645  3.54$  16.77$  5.2$
  Q  0.6645  3.58$  15.3$  5.49$
  Q  -1.3290  3.46$  16.1$  5.68$
  Q  0.6645  10.92$  7.05$  3.51$
  Q  0.6645  10.1$  8.17$  2.79$
  Q  -1.3290  10.79$  7.82$  3.14$
  Q  0.6645  11.23$  15.36$  13.81$
  Q  0.6645  11.29$  15.56$  15.39$
  Q  -1.3290  11.56$  15.31$  14.62$
  Q  0.6645  19.61$  12.2$  12.06$
  Q  0.6645  19.82$  13.72$  12.18$
  Q  -1.3290  20.04$  12.93$  11.97$
  Q  0.6645  21.59$  10.36$  14.94$
  Q  0.6645  21.64$  9.19$  14.13$
  Q  -1.3290  21.26$  9.84$  14.37$
  Q  0.6645  5.37$  21.34$  10.98$
  Q  0.6645  4.92$  19.92$  10.86$
  Q  -1.3290  5.22$  20.61$  10.57$
  Q  0.6645  18.57$  9.64$  17.82$
  Q  0.6645  18.47$  11.15$  17.82$
  Q  -1.3290  18.86$  10.41$  17.81$
  Q  0.6645  8$  19.89$  13.6$
  Q  0.6645  7.1$  19.57$  14.8$
  Q  -1.3290  7.35$  20$  14.1$
  Q  0.6645  17.17$  8.62$  19.31$
  Q  0.6645  16.78$  8.18$  17.82$
  Q  -1.3290  17.23$  8.21$  18.56$
  Q  0.6645  5.02$  5.86$  8.07$
  Q  0.6645  5.47$  7.39$  7.74$
  Q  -1.3290  5.25$  6.55$  7.58$
  Q  0.6645  2.36$  12.02$  12.45$
  Q  0.6645  2.67$  10.7$  13.16$
  Q  -1.3290  2.83$  11.4$  12.7$
  Q  0.6645  17.72$  17.75$  10.81$
  Q  0.6645  17.02$  18.5$  11.97$
  Q  -1.3290  17.43$  17.88$  11.59$
  Q  0.6645  6.6$  4.69$  12.27$
  Q  0.6645  7.26$  5.94$  11.77$
  Q  -1.3290  7.21$  5.14$  11.97$
  Q  0.6645  4.75$  12.48$  18.91$
  Q  0.6645  5.41$  13.88$  19.12$
  Q  -1.3290  5.18$  13.1$  19.34$
  Q  0.6645  14.02$  13.78$  1.49$
  Q  0.6645  15.21$  13.89$  0.57$
  Q  -1.3290  14.59$  14.23$  1.02$
  Q  0.6645  5.1$  8.53$  17.21$
  Q  0.6645  5.95$  9.28$  16.06$
  Q  -1.3290  5.33$  9.18$  16.66$
  Q  0.6645  0.53$  13.39$  13.14$
  Q  0.6645  0.11$  13.17$  11.83$
  Q  -1.3290  0.68$  13.35$  12.37$
  Q  0.6645  12.9$  10$  15.37$
  Q  0.6645  13.41$  11.39$  15.44$
  Q  -1.3290  13.25$  10.61$  15.77$
  Q  0.6645  4.38$  16.36$  7.3$
  Q  0.6645  5.73$  15.77$  7.84$
  Q  -1.3290  5.03$  16.25$  7.89$
  Q  0.6645  14.23$  16.35$  1.54$
  Q  0.6645  13.64$  16.75$  2.87$
  Q  -1.3290  14.18$  16.84$  2.25$
  Q  0.6645  0.95$  14.47$  10.76$
  Q  0.6645  0.19$  15.41$  9.74$
  Q  -1.3290  0.72$  14.76$  9.98$
  Q  0.6645  6.29$  10.6$  2.58$
  Q  0.6645  7.83$  11.01$  3.01$
  Q  -1.3290  7.19$  10.59$  2.62$
  Q  0.6645  20.42$  16.06$  6.99$
  Q  0.6645  19.85$  15.26$  5.85$
  Q  -1.3290  19.8$  15.66$  6.56$
  Q  0.6645  21.04$  15.83$  13.29$
  Q  0.6645  21$  17.31$  13.28$
  Q  -1.3290  21.37$  16.58$  13.28$
  Q  0.6645  4.09$  7.53$  12.39$
  Q  0.6645  3.69$  8.53$  11.18$
  Q  -1.3290  4.04$  7.86$  11.59$
  Q  0.6645  8.9$  1.07$  11.57$
  Q  0.6645  8.21$  0.66$  10.23$
  Q  -1.3290  8.61$  1.17$  10.78$
  Q  0.6645  4.64$  10.38$  5.24$
  Q  0.6645  6.16$  10.08$  5.04$
  Q  -1.3290  5.45$  10.55$  5.14$
  Q  0.6645  6.83$  10.44$  17.76$
  Q  0.6645  7.36$  11.81$  17.55$
  Q  -1.3290  7.43$  10.99$  17.58$
  Q  0.6645  3.63$  9.2$  15.45$
  Q  0.6645  2.22$  9.62$  15.89$
  Q  -1.3290  2.82$  9.4$  15.34$
  Q  0.6645  4.66$  3.36$  13.58$
  Q  0.6645  6.21$  3.51$  13.85$
  Q  -1.3290  5.41$  3.73$  13.66$
  Q  0.6645  20.89$  5.89$  8.24$
  Q  0.6645  21.93$  5.34$  9.24$
  Q  -1.3290  21.16$  5.37$  8.84$
  Q  0.6645  17.02$  9.82$  2.87$
  Q  0.6645  16.14$  10.88$  3.5$
  Q  -1.3290  16.47$  10.47$  2.87$
  Q  0.6645  14.39$  8.36$  0.99$
  Q  0.6645  15.26$  9.39$  1.7$
  Q  -1.3290  15.07$  8.8$  1.14$
  Q  0.6645  1.81$  7.85$  13.97$
  Q  0.6645  0.67$  6.91$  14.19$
  Q  -1.3290  1.12$  7.44$  13.74$
  Q  0.6645  17.84$  16.19$  6.2$
  Q  0.6645  16.36$  16.23$  6.99$
  Q  -1.3290  16.92$  16.26$  6.32$
  Q  0.6645  4.15$  17.93$  11$
  Q  0.6645  3.89$  18.54$  12.46$
  Q  -1.3290  3.79$  18.45$  11.59$
  Q  0.6645  8.85$  16.69$  14.91$
  Q  0.6645  9.77$  17.78$  14.98$
  Q  -1.3290  9.4$  17.13$  15.31$
  Q  0.6645  1.8$  9.36$  10.17$
  Q  0.6645  2.17$  10.62$  11$
  Q  -1.3290  2.24$  10.07$  10.38$
  Q  0.6645  10.51$  11.26$  2.92$
  Q  0.6645  10.69$  11.05$  4.44$
  Q  -1.3290  10.33$  11.36$  3.74$
  Q  0.6645  3.88$  8.73$  8.18$
  Q  0.6645  2.87$  7.63$  7.65$
  Q  -1.3290  3.18$  8.42$  7.77$
  Q  0.6645  11.63$  1.73$  15.36$
  Q  0.6645  10.97$  0.75$  16.27$
  Q  -1.3290  11.56$  1.32$  16.08$
  Q  0.6645  21.88$  12.5$  5.52$
  Q  0.6645  21.68$  11.98$  6.87$
  Q  -1.3290  21.58$  11.96$  6.05$
  Q  0.6645  13.95$  18.11$  7.72$
  Q  0.6645  12.9$  17.65$  8.69$
  Q  -1.3290  13.6$  17.6$  8.29$
  Q  0.6645  6.67$  13.34$  2.5$
  Q  0.6645  7.09$  13.64$  3.93$
  Q  -1.3290  7.13$  13.67$  3.09$
  Q  0.6645  16.87$  12.39$  5.65$
  Q  0.6645  15.92$  13.08$  4.61$
  Q  -1.3290  16.21$  12.47$  5.12$
  Q  0.6645  15.21$  19.14$  16.35$
  Q  0.6645  14.5$  17.95$  15.58$
  Q  -1.3290  15.03$  18.31$  16.18$
  Q  0.6645  16.76$  6.48$  2.27$
  Q  0.6645  15.94$  7.71$  2.12$
  Q  -1.3290  16.16$  6.99$  2.51$
  Q  0.6645  10.46$  1.16$  13.66$
  Q  0.6645  10.04$  -0.24$  13.27$
  Q  -1.3290  9.92$  0.57$  13.45$
  Q  0.6645  8.62$  14.08$  1.39$
  Q  0.6645  8.21$  13.1$  0.29$
  Q  -1.3290  8.57$  13.78$  0.62$
  Q  0.6645  10.44$  16.73$  17.17$
  Q  0.6645  10.95$  15.56$  18.1$
  Q  -1.3290  11$  16.24$  17.59$
  Q  0.6645  10.2$  13.16$  3.53$
  Q  0.6645  9.9$  14.5$  3.85$
  Q  -1.3290  10.25$  13.99$  3.39$
  Q  0.6645  7.11$  2.67$  4.02$
  Q  0.6645  8.19$  3.4$  4.81$
  Q  -1.3290  7.66$  3.29$  4.14$
  Q  0.6645  14.84$  13.39$  14.11$
  Q  0.6645  16.25$  12.83$  14.39$
  Q  -1.3290  15.66$  13.3$  13.97$
  Q  0.6645  13.29$  14.41$  21.34$
  Q  0.6645  13.25$  14.61$  19.89$
  Q  -1.3290  12.93$  14.4$  20.61$
  Q  0.6645  16.88$  4.4$  10.1$
  Q  0.6645  16.37$  4.07$  8.71$
  Q  -1.3290  16.88$  4.45$  9.25$
  Q  0.6645  9.2$  9.49$  15.33$
  Q  0.6645  9.02$  10.59$  16.35$
  Q  -1.3290  9.46$  10.15$  15.78$
  Q  0.6645  10.98$  9.36$  17.26$
  Q  0.6645  11.18$  8.25$  18.32$
  Q  -1.3290  11.26$  8.63$  17.54$
  Q  0.6645  10.95$  15.15$  20.55$
  Q  0.6645  9.49$  14.7$  20.66$
  Q  -1.3290  10.15$  15.03$  20.28$
  Q  0.6645  11.81$  2.88$  12.92$
  Q  0.6645  10.82$  3.71$  13.78$
  Q  -1.3290  11.4$  3.08$  13.61$
  Q  0.6645  20.03$  11.82$  9.93$
  Q  0.6645  19.28$  10.47$  9.92$
  Q  -1.3290  19.38$  11.3$  9.72$
  Q  0.6645  17.33$  3.79$  14.92$
  Q  0.6645  15.9$  3.99$  14.22$
  Q  -1.3290  16.64$  3.58$  14.42$
  Q  0.6645  18.16$  10.99$  13.53$
  Q  0.6645  19.58$  10.54$  13.21$
  Q  -1.3290  18.82$  10.91$  13.04$
  Q  0.6645  9.84$  6.93$  13.89$
  Q  0.6645  10.75$  7.21$  12.56$
  Q  -1.3290  10.23$  7.4$  13.25$
  Q  0.6645  11.46$  5.47$  5.22$
  Q  0.6645  11.98$  5.56$  6.59$
  Q  -1.3290  11.39$  5.58$  6.03$
  Q  0.6645  18.7$  8.6$  3.84$
  Q  0.6645  19.69$  9.72$  3.5$
  Q  -1.3290  19.02$  9.2$  3.36$
  Q  0.6645  0.17$  12.74$  9.1$
  Q  0.6645  0.95$  11.45$  8.94$
  Q  -1.3290  0.28$  11.91$  8.93$
  Q  0.6645  17.63$  15.5$  9.82$
  Q  0.6645  18.84$  14.6$  9.74$
  Q  -1.3290  18.41$  15.28$  9.99$
  Q  0.6645  7.26$  7.35$  3.53$
  Q  0.6645  7.53$  8.64$  2.87$
  Q  -1.3290  7.72$  7.87$  3.11$
  Q  0.6645  10.37$  10.93$  0.73$
  Q  0.6645  10.39$  12.45$  0.85$
  Q  -1.3290  10.73$  11.67$  0.92$
  Q  0.6645  17.13$  9.65$  6.44$
  Q  0.6645  16.74$  8.53$  7.34$
  Q  -1.3290  16.58$  9.15$  6.82$
  Q  0.6645  14.82$  11.53$  17.75$
  Q  0.6645  14.49$  12.99$  17.6$
  Q  -1.3290  14.97$  12.35$  17.79$
  Q  0.6645  8.38$  18.7$  7.65$
  Q  0.6645  9.71$  19.51$  7.54$
  Q  -1.3290  8.87$  19.38$  7.77$
  Q  0.6645  13.34$  11.43$  2.85$
  Q  0.6645  12.45$  12.56$  2.56$
  Q  -1.3290  13.17$  12.23$  2.69$
  Q  0.6645  2.98$  12.81$  7.73$
  Q  0.6645  2.59$  11.66$  6.79$
  Q  -1.3290  2.8$  12.44$  6.97$
  Q  0.6645  13.53$  9.78$  17.5$
  Q  0.6645  14$  8.94$  18.68$
  Q  -1.3290  13.83$  9.67$  18.28$
  Q  0.6645  19.12$  8.65$  11.88$
  Q  0.6645  20.35$  8.91$  10.97$
  Q  -1.3290  19.53$  8.81$  11.16$
  Q  0.6645  0.82$  7.13$  10.41$
  Q  0.6645  1$  7.8$  11.72$
  Q  -1.3290  0.77$  7.77$  10.94$
  Q  0.6645  11.78$  19.12$  15.64$
  Q  0.6645  12.36$  18.47$  14.44$
  Q  -1.3290  11.91$  19.05$  14.83$
  Q  0.6645  0.93$  11.5$  17.48$
  Q  0.6645  1.14$  12$  16.11$
  Q  -1.3290  1.36$  11.57$  16.77$
  Q  0.6645  6.42$  8.5$  19.88$
  Q  0.6645  6.03$  9.71$  20.85$
  Q  -1.3290  5.97$  9.2$  20.14$
  Q  0.6645  20.61$  6.55$  16.19$
  Q  0.6645  21.87$  5.78$  15.9$
  Q  -1.3290  21.36$  6.43$  15.85$
  Q  0.6645  9.93$  3.8$  6.37$
  Q  0.6645  10.26$  2.43$  6.01$
  Q  -1.3290  9.75$  3.05$  6.1$
  Q  0.6645  18.07$  14.5$  16.05$
  Q  0.6645  18.35$  15.94$  16.03$
  Q  -1.3290  18.49$  15.17$  15.81$
  Q  0.6645  8.55$  9.78$  6.12$
  Q  0.6645  8.18$  8.66$  5.12$
  Q  -1.3290  8.04$  9.26$  5.69$
  Q  0.6645  15.73$  19.92$  13.45$
  Q  0.6645  16.86$  20.94$  13.57$
  Q  -1.3290  16.4$  20.34$  13.18$
  Q  0.6645  1.89$  13.48$  5.14$
  Q  0.6645  1.31$  14.3$  4.04$
  Q  -1.3290  1.28$  13.79$  4.71$
*
