! NoMOPrint PrintBasis #MINIPRINT SMALLPRINT LARGEPRINT
! ALLPOP XYZFILE
#! BP86 3-21G   TightSCF
! ENGRAD
! B3LYP NormalPNO PModel #DecontractAux
#! VerySlowConv 
 %maxcore 5000
 %scf  maxiter   500  end 

%pal
    nprocs 32
end

%basis
    NewGTO O    # New basis for oxygen
        "aug-cc-pVTZ"
    end
    NewGTO C    # New basis for carbon
        "aug-cc-pVTZ"
    end
    NewGTO H    # New basis for hydrogen
        "cc-pVTZ"
    end
end

* xyz 0   1
  C  9.79  11.58  10.09  #1
  H  9.34  10.72  10.59  #2
  H  9.13  11.78  9.23  #3
  C  11.26  11.24  9.76  #4
  H  11.38  10.84  8.72  #5
  H  11.85  12.22  9.66  #6
  C  12.01  10.35  10.85  #7
  H  13.11  10.35  10.74  #8
  H  11.72  9.27  10.78  #9
  C  11.88  10.75  12.3  #10
  H  10.84  10.94  12.44  #11
  H  12.44  11.73  12.49  #12
  O  12.43  9.65  13.12  #13
  H  11.98  8.84  12.89  #14
  O  9.69  12.73  11.06  #15
  H  8.73  13  11.1  #16
  O  11.94  12.46  6.64  #17
  H  11.75  12.03  5.84  #18
  H  11.13  12.82  6.97  #19
  O  8.3  8.3  11.36  #20
  H  8.55  8.32  10.43  #21
  H  7.48  7.76  11.31  #22
  O  13.27  13.46  13.77  #23
  H  14.03  13.23  13.28  #24
  H  13.26  12.84  14.53  #25
  O  11.07  9.09  15.43  #26
  H  10.17  8.86  15.08  #27
  H  11.6  9.05  14.64  #28
  O  15.1  9.67  13.09  #29
  H  15.2  8.95  12.4  #30
  H  14.12  9.79  13.21  #31
  O  11.22  14.59  12.65  #32
  H  10.89  13.8  12.19  #33
  H  11.85  14.16  13.24  #34
  O  6.8  13.19  11.17  #35
  H  6.8  12.26  11.03  #36
  H  6.78  13.68  10.34  #37
  O  17.24  8.02  14.22  #38
  H  16.3  8.34  14.28  #39
  H  17.21  7.49  13.4  #40
  O  8.98  13.51  7.22  #41
  H  8.69  12.61  7.43  #42
  H  8.7  13.62  6.29  #43
  O  15.54  12.23  11.93  #44
  H  16.4  12.46  12.2  #45
  H  15.35  11.4  12.39  #46
  O  14.46  12.37  5.24  #47
  H  14.37  12.74  4.33  #48
  H  13.66  12.5  5.84  #49
  O  10.91  11.21  3.84  #50
  H  11.32  11.73  3.07  #51
  H  11.05  10.23  3.6  #52
  O  15.44  7.71  10.9  #53
  H  15.57  6.91  11.42  #54
  H  16.32  8.07  10.94  #55
  O  6.39  6.28  11.38  #56
  H  6.73  5.74  12.1  #57
  H  5.69  6.95  11.67  #58
  O  15  15.36  15.24  #59
  H  14.2  15.25  14.8  #60
  H  15.63  15.97  14.73  #61
  O  11.71  7.02  12.46  #62
  H  11  6.62  13.01  #63
  H  12.55  6.87  12.99  #64
  O  11.64  8.97  18.53  #65
  H  11.85  8.05  18.75  #66
  H  11.91  9.05  17.61  #67
  O  7.97  10.97  7.6  #68
  H  8.2  10.71  6.68  #69
  H  7.05  10.78  7.7  #70
  O  11.18  6.16  9.57  #71
  H  11.31  6.44  10.46  #72
  H  10.24  5.8  9.53  #73
  O  8.85  7.98  13.98  #74
  H  8.63  8.04  13.05  #75
  H  8.92  7.02  14.02  #76
  O  11.34  11.97  15.7  #77
  H  11.01  11.07  15.72  #78
  H  11.01  12.35  16.47  #79
  O  6.27  10.43  11.78  #80
  H  7.03  9.81  11.6  #81
  H  5.55  9.84  12.09  #82
  O  9.47  8.62  8.63  #83
  H  9.49  9.13  7.81  #84
  H  10.2  8.04  8.5  #85
  O  10.4  15.79  7.9  #86
  H  10.01  14.9  7.65  #87
  H  9.63  16.38  7.56  #88
  Q  0.6645  12.35$  10.84$  0.04$
  Q  0.6645  13.03$  9.72$  0.88$
  Q  -1.3290  12.38$  10.26$  0.64$
  Q  0.6645  18.41$  5.54$  13.03$
  Q  0.6645  20.06$  5.75$  13.07$
  Q  -1.3290  19.22$  5.61$  13.36$
  Q  0.6645  14.38$  5.99$  2.55$
  Q  0.6645  13.11$  6.37$  1.7$
  Q  -1.3290  13.84$  6.5$  2.15$
  Q  0.6645  19.12$  8.06$  5.54$
  Q  0.6645  19.11$  7.43$  4.3$
  Q  -1.3290  19.28$  7.42$  5.1$
  Q  0.6645  8.11$  2.98$  18.39$
  Q  0.6645  6.67$  3.07$  17.98$
  Q  -1.3290  7.5$  3.08$  17.84$
  Q  0.6645  20.35$  6.59$  7.82$
  Q  0.6645  20.37$  6.32$  6.33$
  Q  -1.3290  20.62$  6.19$  7.12$
  Q  0.6645  7.33$  19.7$  15.12$
  Q  0.6645  8.27$  18.48$  15.03$
  Q  -1.3290  7.99$  19.25$  14.83$
  Q  0.6645  15.8$  11.93$  1.87$
  Q  0.6645  16.97$  10.97$  2.15$
  Q  -1.3290  16.3$  11.25$  1.73$
  Q  0.6645  12.97$  17.45$  16.8$
  Q  0.6645  13.81$  16.11$  16.72$
  Q  -1.3290  13.14$  16.61$  16.91$
  Q  0.6645  7.1$  7.16$  20.03$
  Q  0.6645  5.68$  6.47$  19.62$
  Q  -1.3290  6.27$  6.87$  20.11$
  Q  0.6645  16.59$  6.86$  5.47$
  Q  0.6645  16.55$  7.7$  4.23$
  Q  -1.3290  16.41$  7.54$  5.02$
  Q  0.6645  12.96$  17.65$  20.22$
  Q  0.6645  13.83$  16.38$  19.89$
  Q  -1.3290  13.43$  16.95$  20.38$
  Q  0.6645  18.76$  16.75$  16.15$
  Q  0.6645  19.12$  15.87$  17.38$
  Q  -1.3290  19.25$  16.21$  16.62$
  Q  0.6645  14.13$  18.73$  10.75$
  Q  0.6645  13.5$  20.06$  11.2$
  Q  -1.3290  14.03$  19.41$  11.24$
  Q  0.6645  14.17$  1.49$  7$
  Q  0.6645  15.61$  1.79$  6.47$
  Q  -1.3290  14.97$  1.32$  6.76$
  Q  0.6645  4.6$  11.48$  8.28$
  Q  0.6645  5.44$  11.79$  7.06$
  Q  -1.3290  5.06$  11.29$  7.59$
  Q  0.6645  11.78$  16.09$  6.44$
  Q  0.6645  11.95$  16.25$  5.02$
  Q  -1.3290  12.24$  16.1$  5.77$
  Q  0.6645  12.97$  4.07$  10.74$
  Q  0.6645  12.75$  5.13$  11.95$
  Q  -1.3290  12.8$  4.38$  11.54$
  Q  0.6645  6.4$  6.47$  16.33$
  Q  0.6645  5.93$  7.86$  16.1$
  Q  -1.3290  5.83$  7.05$  16.19$
  Q  0.6645  2.94$  7.38$  9.51$
  Q  0.6645  2.94$  8.84$  8.75$
  Q  -1.3290  2.87$  8.25$  9.4$
  Q  0.6645  18.86$  9.38$  14.23$
  Q  0.6645  20.38$  9.66$  14.19$
  Q  -1.3290  19.59$  9.82$  14.42$
  Q  0.6645  17.07$  9.39$  9.9$
  Q  0.6645  17.71$  9.86$  11.25$
  Q  -1.3290  17.53$  9.31$  10.66$
  Q  0.6645  10.63$  16.79$  9.38$
  Q  0.6645  10.23$  17.13$  10.99$
  Q  -1.3290  10.44$  17.25$  10.14$
  Q  0.6645  12.57$  10.33$  19.65$
  Q  0.6645  13.47$  11.54$  19.42$
  Q  -1.3290  12.84$  11.09$  19.82$
  Q  0.6645  7.64$  13.74$  18.16$
  Q  0.6645  7.94$  13.83$  16.58$
  Q  -1.3290  7.49$  13.72$  17.32$
  Q  0.6645  0.53$  14.24$  11.84$
  Q  0.6645  0.02$  14.71$  13.23$
  Q  -1.3290  0.59$  14.44$  12.66$
  Q  0.6645  6.61$  10.25$  15.37$
  Q  0.6645  7.53$  8.9$  15.06$
  Q  -1.3290  6.98$  9.46$  15.48$
  Q  0.6645  15.55$  8.96$  19.58$
  Q  0.6645  14.76$  8.61$  20.94$
  Q  -1.3290  15.05$  8.48$  20.14$
  Q  0.6645  10.27$  16.05$  12.81$
  Q  0.6645  8.93$  16.73$  13$
  Q  -1.3290  9.71$  16.69$  12.74$
  Q  0.6645  14.62$  8.16$  1.29$
  Q  0.6645  15.37$  9.47$  1.18$
  Q  -1.3290  14.78$  8.9$  0.98$
  Q  0.6645  16.86$  2.73$  10.07$
  Q  0.6645  16.51$  2.38$  11.58$
  Q  -1.3290  16.46$  2.77$  10.84$
  Q  0.6645  13.77$  17.59$  6.05$
  Q  0.6645  13.19$  18.81$  6.75$
  Q  -1.3290  13.75$  18.39$  6.28$
  Q  0.6645  14.35$  4.16$  9$
  Q  0.6645  14.72$  3.03$  9.89$
  Q  -1.3290  14.21$  3.45$  9.4$
  Q  0.6645  13.21$  4.18$  21.32$
  Q  0.6645  11.74$  4.61$  21.13$
  Q  -1.3290  12.54$  4.43$  20.88$
  Q  0.6645  1.36$  12.5$  13.48$
  Q  0.6645  2.46$  12.09$  14.59$
  Q  -1.3290  1.72$  12$  14.09$
  Q  0.6645  -0.05$  11.1$  9.13$
  Q  0.6645  1.38$  11.47$  8.9$
  Q  -1.3290  0.68$  11.07$  8.73$
  Q  0.6645  3.64$  16.91$  11.81$
  Q  0.6645  4.48$  16.43$  13.12$
  Q  -1.3290  4.22$  16.45$  12.28$
  Q  0.6645  21.1$  13.17$  9.97$
  Q  0.6645  20.6$  14.55$  10.55$
  Q  -1.3290  21.18$  13.96$  10.31$
  Q  0.6645  18.44$  15.58$  7.19$
  Q  0.6645  19.33$  16.23$  8.29$
  Q  -1.3290  19.17$  15.69$  7.66$
  Q  0.6645  12.93$  6.57$  15.97$
  Q  0.6645  12.79$  5.98$  17.28$
  Q  -1.3290  12.57$  6.09$  16.52$
  Q  0.6645  0.94$  14.66$  5.81$
  Q  0.6645  1.93$  13.66$  5.2$
  Q  -1.3290  1.69$  14.36$  5.6$
  Q  0.6645  14.61$  8.99$  15.78$
  Q  0.6645  15.21$  7.68$  16.49$
  Q  -1.3290  14.76$  8.16$  15.88$
  Q  0.6645  3.81$  13.34$  13.77$
  Q  0.6645  4.91$  12.75$  14.61$
  Q  -1.3290  4.2$  13.13$  14.47$
  Q  0.6645  14.17$  5.47$  14.06$
  Q  0.6645  14.42$  6.92$  14.47$
  Q  -1.3290  14.01$  6.29$  14.04$
  Q  0.6645  17.2$  12.56$  16.37$
  Q  0.6645  16.09$  13.53$  15.84$
  Q  -1.3290  16.61$  12.84$  15.82$
  Q  0.6645  14.66$  6.13$  8.09$
  Q  0.6645  15.2$  6.83$  9.26$
  Q  -1.3290  15.27$  6.27$  8.62$
  Q  0.6645  19.57$  11.93$  8.9$
  Q  0.6645  19.67$  11.47$  10.44$
  Q  -1.3290  19.96$  11.69$  9.64$
  Q  0.6645  7.72$  4.5$  16.62$
  Q  0.6645  8.05$  5.19$  15.44$
  Q  -1.3290  7.81$  5.2$  16.22$
  Q  0.6645  9.86$  19.1$  9.98$
  Q  0.6645  8.55$  19.66$  9.31$
  Q  -1.3290  9.34$  19.7$  9.65$
  Q  0.6645  16.51$  12.66$  5.73$
  Q  0.6645  18.01$  12.58$  6.14$
  Q  -1.3290  17.3$  12.4$  5.67$
  Q  0.6645  12.48$  19.07$  14.98$
  Q  0.6645  13.62$  19.47$  16.04$
  Q  -1.3290  12.86$  19.2$  15.77$
  Q  0.6645  10.97$  19.34$  16.51$
  Q  0.6645  9.76$  18.51$  17.05$
  Q  -1.3290  10.38$  19.07$  17.11$
  Q  0.6645  -0.45$  8.29$  9.52$
  Q  0.6645  1.07$  8.5$  9.93$
  Q  -1.3290  0.23$  8.34$  10.04$
  Q  0.6645  10.89$  5.76$  15.41$
  Q  0.6645  10.29$  4.94$  14.19$
  Q  -1.3290  10.45$  5.64$  14.68$
  Q  0.6645  0.84$  10.24$  13.25$
  Q  0.6645  0.32$  9.17$  12.14$
  Q  -1.3290  0.31$  9.58$  12.89$
  Q  0.6645  14.22$  11.55$  16.72$
  Q  0.6645  15.44$  11.42$  15.75$
  Q  -1.3290  14.74$  11.14$  16.18$
  Q  0.6645  3.93$  14.63$  11.7$
  Q  0.6645  5.01$  13.63$  11.26$
  Q  -1.3290  4.28$  13.85$  11.59$
  Q  0.6645  13.48$  13.09$  2.48$
  Q  0.6645  14.82$  13.93$  2.36$
  Q  -1.3290  14.32$  13.27$  2.56$
  Q  0.6645  15.53$  16.26$  18.33$
  Q  0.6645  15.89$  15.18$  19.24$
  Q  -1.3290  15.42$  15.52$  18.66$
  Q  0.6645  18.18$  10.27$  4.24$
  Q  0.6645  19.13$  10.84$  3.22$
  Q  -1.3290  18.49$  10.39$  3.47$
  Q  0.6645  16.36$  6.19$  2.97$
  Q  0.6645  16.97$  6.96$  1.69$
  Q  -1.3290  16.79$  6.84$  2.51$
  Q  0.6645  16.62$  18.14$  9.37$
  Q  0.6645  16.3$  19.18$  8.28$
  Q  -1.3290  16.32$  18.43$  8.62$
  Q  0.6645  8.23$  20.47$  12.87$
  Q  0.6645  8.49$  20.26$  11.38$
  Q  -1.3290  8.07$  20.56$  12.07$
  Q  0.6645  9.62$  2.57$  13.65$
  Q  0.6645  11.21$  2.85$  13.92$
  Q  -1.3290  10.35$  2.95$  14$
  Q  0.6645  3.29$  12.21$  10.33$
  Q  0.6645  3.31$  13.17$  9.1$
  Q  -1.3290  3.36$  12.4$  9.5$
  Q  0.6645  5.49$  15.65$  3.48$
  Q  0.6645  6.44$  16.32$  2.48$
  Q  -1.3290  6.2$  15.74$  3.03$
  Q  0.6645  11.04$  18.24$  13.03$
  Q  0.6645  11.92$  19.59$  13$
  Q  -1.3290  11.7$  18.81$  13.26$
  Q  0.6645  17.01$  18.21$  15.68$
  Q  0.6645  17.31$  17.56$  14.33$
  Q  -1.3290  17.51$  17.82$  15.13$
  Q  0.6645  21.21$  11.2$  5.84$
  Q  0.6645  20.61$  12.47$  6.57$
  Q  -1.3290  20.6$  11.7$  6.21$
  Q  0.6645  2.95$  16.93$  7.74$
  Q  0.6645  2.69$  18.3$  7.09$
  Q  -1.3290  2.68$  17.75$  7.71$
  Q  0.6645  10.02$  9.69$  0.23$
  Q  0.6645  8.99$  8.74$  -0.49$
  Q  -1.3290  9.31$  9.18$  0.16$
  Q  0.6645  13.38$  17.37$  12.73$
  Q  0.6645  13.11$  15.79$  12.51$
  Q  -1.3290  13.57$  16.54$  12.62$
  Q  0.6645  6.12$  16.61$  11.23$
  Q  0.6645  7.58$  16.64$  11.48$
  Q  -1.3290  6.91$  16.7$  11$
  Q  0.6645  16.2$  4.04$  15.03$
  Q  0.6645  15.43$  3.49$  13.84$
  Q  -1.3290  15.56$  4.02$  14.5$
  Q  0.6645  2.15$  10.99$  17.8$
  Q  0.6645  3.47$  11.62$  17.72$
  Q  -1.3290  2.66$  11.63$  17.83$
  Q  0.6645  10.48$  22.16$  15.2$
  Q  0.6645  9.34$  21.23$  15.05$
  Q  -1.3290  9.91$  21.78$  14.76$
  Q  0.6645  14.64$  18.09$  3.78$
  Q  0.6645  14.15$  19.41$  4.07$
  Q  -1.3290  14.24$  18.75$  3.57$
  Q  0.6645  9.8$  12.95$  4.14$
  Q  0.6645  8.33$  13.23$  3.82$
  Q  -1.3290  9.11$  13.41$  4.13$
  Q  0.6645  14.19$  3.94$  17.34$
  Q  0.6645  14.6$  3.77$  18.74$
  Q  -1.3290  14.73$  3.8$  17.94$
  Q  0.6645  1.61$  14.01$  7.66$
  Q  0.6645  1.1$  14.62$  8.91$
  Q  -1.3290  1.68$  14.4$  8.37$
  Q  0.6645  2.23$  11.43$  4.66$
  Q  0.6645  3.48$  12.17$  4.5$
  Q  -1.3290  2.68$  12.01$  4.32$
  Q  0.6645  16.85$  17.5$  3.62$
  Q  0.6645  16.14$  16.16$  3.52$
  Q  -1.3290  16.42$  16.84$  3.9$
  Q  0.6645  6.38$  5.32$  3.98$
  Q  0.6645  7.67$  5.1$  3.29$
  Q  -1.3290  6.95$  5.49$  3.43$
  Q  0.6645  9.5$  -0.21$  8.99$
  Q  0.6645  9.13$  0.64$  7.8$
  Q  -1.3290  9.31$  0.53$  8.62$
  Q  0.6645  6.62$  14.8$  13.05$
  Q  0.6645  6.62$  16.25$  13.75$
  Q  -1.3290  6.95$  15.57$  13.28$
  Q  0.6645  14.75$  10.39$  5.6$
  Q  0.6645  15.24$  8.95$  5.6$
  Q  -1.3290  14.81$  9.61$  5.9$
  Q  0.6645  7.51$  0.63$  9.59$
  Q  0.6645  7.3$  0.04$  10.97$
  Q  -1.3290  7.18$  0.63$  10.38$
  Q  0.6645  12.42$  5.66$  4.34$
  Q  0.6645  11.6$  4.3$  4.91$
  Q  -1.3290  12.29$  4.84$  4.68$
  Q  0.6645  17.77$  2.5$  5.59$
  Q  0.6645  17.19$  3.89$  6.36$
  Q  -1.3290  17.26$  3.04$  6.09$
  Q  0.6645  10.45$  2.33$  17.58$
  Q  0.6645  10.56$  2.24$  16.01$
  Q  -1.3290  10.34$  1.93$  16.8$
  Q  0.6645  16.14$  11.08$  8.22$
  Q  0.6645  16.02$  9.91$  7.44$
  Q  -1.3290  16.39$  10.35$  7.99$
  Q  0.6645  13.71$  1.48$  17.2$
  Q  0.6645  14.8$  0.69$  18.13$
  Q  -1.3290  14.11$  0.81$  17.56$
  Q  0.6645  8.49$  1.57$  11.24$
  Q  0.6645  9.88$  2.04$  10.92$
  Q  -1.3290  9.17$  2.03$  11.36$
  Q  0.6645  1.91$  17.13$  15.23$
  Q  0.6645  0.98$  18.19$  15.53$
  Q  -1.3290  1.65$  17.9$  15.15$
  Q  0.6645  17.31$  13.54$  13.92$
  Q  0.6645  18.54$  14.3$  13.33$
  Q  -1.3290  17.77$  13.9$  13.3$
  Q  0.6645  4.79$  18.95$  11.93$
  Q  0.6645  6.02$  19.82$  12.25$
  Q  -1.3290  5.26$  19.44$  12.42$
  Q  0.6645  19.24$  9.37$  17.64$
  Q  0.6645  19.13$  10.11$  16.24$
  Q  -1.3290  18.91$  9.9$  17.07$
  Q  0.6645  3.4$  5.76$  14.21$
  Q  0.6645  4.31$  6.92$  14.73$
  Q  -1.3290  3.67$  6.57$  14.28$
  Q  0.6645  0.95$  10.53$  6.88$
  Q  0.6645  0.62$  9.91$  5.43$
  Q  -1.3290  1.07$  10.33$  6.04$
  Q  0.6645  12.78$  2.71$  12.63$
  Q  0.6645  12.69$  1.15$  13.03$
  Q  -1.3290  12.85$  2.01$  13.16$
  Q  0.6645  5.85$  17.69$  15.51$
  Q  0.6645  6.13$  18.27$  14.09$
  Q  -1.3290  5.97$  17.65$  14.68$
  Q  0.6645  8.59$  8$  5.68$
  Q  0.6645  8.23$  6.92$  4.65$
  Q  -1.3290  8.56$  7.21$  5.37$
  Q  0.6645  14.12$  17.67$  8.72$
  Q  0.6645  12.98$  16.93$  9.54$
  Q  -1.3290  13.43$  17.59$  9.24$
  Q  0.6645  5.04$  1.85$  8.08$
  Q  0.6645  4.91$  3.06$  8.97$
  Q  -1.3290  4.94$  2.66$  8.23$
  Q  0.6645  5.23$  14.88$  7.76$
  Q  0.6645  3.61$  14.96$  8.01$
  Q  -1.3290  4.41$  15.21$  7.75$
  Q  0.6645  12.43$  7.54$  6.66$
  Q  0.6645  12.68$  9.05$  6.65$
  Q  -1.3290  12.28$  8.34$  6.43$
  Q  0.6645  4.52$  15.88$  5.86$
  Q  0.6645  3.46$  15.2$  5.1$
  Q  -1.3290  4.19$  15.59$  5.15$
  Q  0.6645  8.29$  4.17$  12.72$
  Q  0.6645  7.26$  3.9$  13.73$
  Q  -1.3290  7.75$  4.37$  13.27$
  Q  0.6645  13$  5.92$  19.62$
  Q  0.6645  13.96$  7.08$  19.3$
  Q  -1.3290  13.21$  6.69$  19.27$
  Q  0.6645  16.87$  10.99$  20.27$
  Q  0.6645  16.62$  11.17$  21.81$
  Q  -1.3290  16.74$  11.41$  21$
  Q  0.6645  8.77$  8.58$  19.18$
  Q  0.6645  9.56$  7.42$  19.38$
  Q  -1.3290  8.91$  7.88$  19.59$
  Q  0.6645  8.48$  14.31$  14.29$
  Q  0.6645  9.71$  13.38$  14.78$
  Q  -1.3290  8.92$  13.7$  14.77$
  Q  0.6645  19.7$  8.73$  7.85$
  Q  0.6645  19.16$  8.39$  9.3$
  Q  -1.3290  19.58$  8.25$  8.55$
  Q  0.6645  11.39$  13.01$  1.34$
  Q  0.6645  11.33$  14.11$  2.51$
  Q  -1.3290  11.58$  13.38$  2.1$
  Q  0.6645  15.37$  10.12$  17.84$
  Q  0.6645  16.86$  10.11$  17.93$
  Q  -1.3290  16.09$  10.11$  18.26$
  Q  0.6645  1.82$  14.91$  14.21$
  Q  0.6645  3.25$  14.89$  14.95$
  Q  -1.3290  2.49$  15.2$  14.68$
  Q  0.6645  5.31$  13.63$  5.48$
  Q  0.6645  5.8$  12.58$  4.54$
  Q  -1.3290  5.49$  12.86$  5.23$
  Q  0.6645  12.95$  22.2$  9.46$
  Q  0.6645  12.01$  20.97$  9.23$
  Q  -1.3290  12.33$  21.62$  9.67$
  Q  0.6645  19.93$  15.4$  14.61$
  Q  0.6645  19.94$  16.38$  13.44$
  Q  -1.3290  20$  15.63$  13.8$
  Q  0.6645  6.67$  11.02$  3.05$
  Q  0.6645  6.89$  12.25$  2.08$
  Q  -1.3290  6.71$  11.86$  2.86$
  Q  0.6645  4.32$  6.82$  7.37$
  Q  0.6645  3.96$  5.66$  8.25$
  Q  -1.3290  4.48$  6.14$  7.81$
  Q  0.6645  7.53$  4.61$  7.46$
  Q  0.6645  6.71$  3.22$  7.22$
  Q  -1.3290  7.39$  3.74$  7.21$
  Q  0.6645  10.24$  16.66$  3.14$
  Q  0.6645  9.82$  15.08$  3.52$
  Q  -1.3290  10.34$  15.78$  3.3$
  Q  0.6645  6.24$  2.94$  10.84$
  Q  0.6645  5.49$  4.13$  11.16$
  Q  -1.3290  5.61$  3.41$  10.79$
  Q  0.6645  7.41$  8.72$  2.74$
  Q  0.6645  6.09$  8.94$  3.65$
  Q  -1.3290  6.91$  9.08$  3.34$
  Q  0.6645  16.89$  15.7$  12.72$
  Q  0.6645  15.58$  16.67$  12.66$
  Q  -1.3290  16.41$  16.43$  12.87$
  Q  0.6645  6.24$  19.56$  8.67$
  Q  0.6645  6.6$  18.47$  9.69$
  Q  -1.3290  6.78$  19.03$  9.06$
  Q  0.6645  11.08$  21.6$  13.06$
  Q  0.6645  11.7$  21.67$  11.64$
  Q  -1.3290  11.69$  21.43$  12.46$
  Q  0.6645  5.6$  11.07$  18.84$
  Q  0.6645  6.19$  12.29$  17.99$
  Q  -1.3290  5.59$  11.74$  18.26$
  Q  0.6645  1.69$  17.59$  13.23$
  Q  0.6645  1.19$  16.66$  12.25$
  Q  -1.3290  1.43$  17.41$  12.5$
  Q  0.6645  9.34$  16.23$  17.09$
  Q  0.6645  7.86$  16.83$  16.98$
  Q  -1.3290  8.72$  16.8$  16.9$
  Q  0.6645  18.88$  14.56$  3.34$
  Q  0.6645  18.67$  13.82$  4.58$
  Q  -1.3290  19.13$  14.04$  3.94$
  Q  0.6645  9.67$  9.69$  17.67$
  Q  0.6645  8.13$  9.8$  17.36$
  Q  -1.3290  8.87$  9.99$  17.74$
  Q  0.6645  6.52$  11.77$  13.53$
  Q  0.6645  7.39$  12.31$  14.67$
  Q  -1.3290  6.68$  12.1$  14.28$
  Q  0.6645  16.38$  0.98$  13.43$
  Q  0.6645  17.75$  1.81$  13.21$
  Q  -1.3290  16.91$  1.7$  13.39$
  Q  0.6645  9.47$  12.48$  21.85$
  Q  0.6645  10.36$  12.88$  20.7$
  Q  -1.3290  10.04$  12.97$  21.46$
  Q  0.6645  9.51$  10.49$  4.89$
  Q  0.6645  8.18$  9.89$  4.59$
  Q  -1.3290  8.81$  10.09$  5.1$
  Q  0.6645  9.18$  5.72$  17.57$
  Q  0.6645  10.61$  6.05$  17.23$
  Q  -1.3290  9.97$  5.98$  17.74$
  Q  0.6645  9.57$  8.07$  1.76$
  Q  0.6645  10.11$  7.69$  3.07$
  Q  -1.3290  9.55$  7.65$  2.47$
  Q  0.6645  11.67$  1.89$  5.71$
  Q  0.6645  11.54$  1.08$  4.43$
  Q  -1.3290  11.42$  1.74$  4.93$
  Q  0.6645  18.53$  13.9$  8.13$
  Q  0.6645  17.56$  12.58$  8.34$
  Q  -1.3290  18.25$  13.08$  8.09$
  Q  0.6645  11.41$  15.78$  17.89$
  Q  0.6645  10.96$  14.35$  18.41$
  Q  -1.3290  10.85$  15.15$  18.2$
  Q  0.6645  16.87$  6.55$  17.38$
  Q  0.6645  15.82$  5.64$  17.91$
  Q  -1.3290  16.1$  6.36$  17.64$
  Q  0.6645  19.62$  12.9$  16.41$
  Q  0.6645  19.22$  11.82$  17.35$
  Q  -1.3290  19.2$  12.59$  17.03$
  Q  0.6645  9.94$  11.58$  18.2$
  Q  0.6645  11.33$  12.01$  18.86$
  Q  -1.3290  10.57$  12.12$  18.46$
  Q  0.6645  5.51$  14.26$  17.3$
  Q  0.6645  4.36$  14.69$  18.35$
  Q  -1.3290  4.84$  14.75$  17.62$
  Q  0.6645  16.73$  2.11$  15.6$
  Q  0.6645  16.33$  2.72$  16.91$
  Q  -1.3290  16.84$  2.32$  16.38$
  Q  0.6645  8.42$  3.96$  10.06$
  Q  0.6645  8.01$  5.5$  9.98$
  Q  -1.3290  8.54$  4.8$  10.19$
  Q  0.6645  16.59$  16.85$  7.35$
  Q  0.6645  16.63$  16.53$  5.95$
  Q  -1.3290  16.7$  16.32$  6.72$
  Q  0.6645  4.23$  9.65$  7.15$
  Q  0.6645  2.94$  9.38$  6.6$
  Q  -1.3290  3.68$  9.15$  6.88$
  Q  0.6645  4$  8.28$  11.21$
  Q  0.6645  4.18$  7.55$  12.58$
  Q  -1.3290  4.38$  8.1$  11.94$
  Q  0.6645  9.38$  4.18$  6.88$
  Q  0.6645  9.46$  5.48$  6.07$
  Q  -1.3290  9.73$  4.74$  6.33$
  Q  0.6645  18.05$  6.88$  15.36$
  Q  0.6645  19.22$  6.58$  16.16$
  Q  -1.3290  18.4$  6.56$  16.01$
  Q  0.6645  7.37$  2.56$  15.7$
  Q  0.6645  7.14$  1.28$  14.87$
  Q  -1.3290  7.2$  2.09$  15$
  Q  0.6645  15.22$  12.32$  18.46$
  Q  0.6645  14.44$  13.61$  18.14$
  Q  -1.3290  14.54$  12.78$  18.34$
  Q  0.6645  6.05$  18.07$  17.95$
  Q  0.6645  5.46$  16.7$  17.46$
  Q  -1.3290  5.93$  17.43$  17.41$
  Q  0.6645  7.69$  6.57$  7.28$
  Q  0.6645  6.36$  6.22$  8.08$
  Q  -1.3290  7.2$  6.21$  7.89$
  Q  0.6645  18.04$  9.68$  6.98$
  Q  0.6645  19.33$  10.4$  6.52$
  Q  -1.3290  18.77$  9.77$  6.58$
  Q  0.6645  16.69$  5.89$  7.24$
  Q  0.6645  18.15$  6.08$  6.66$
  Q  -1.3290  17.39$  5.69$  6.83$
  Q  0.6645  7.8$  16.4$  3.74$
  Q  0.6645  8.16$  17.93$  3.62$
  Q  -1.3290  8.12$  17.14$  3.98$
  Q  0.6645  6.76$  15.34$  9.24$
  Q  0.6645  7.46$  14.44$  8.36$
  Q  -1.3290  6.82$  14.68$  8.76$
  Q  0.6645  11.01$  18.65$  4.48$
  Q  0.6645  12.2$  18.27$  3.59$
  Q  -1.3290  11.39$  18.46$  3.76$
  Q  0.6645  15.23$  15.27$  7.17$
  Q  0.6645  13.68$  15.07$  6.93$
  Q  -1.3290  14.42$  15.03$  7.37$
  Q  0.6645  10.32$  4.46$  18.72$
  Q  0.6645  11.35$  3.53$  19.47$
  Q  -1.3290  10.63$  3.73$  19.04$
  Q  0.6645  15.47$  12.83$  9.86$
  Q  0.6645  15.14$  13.49$  8.45$
  Q  -1.3290  15.57$  13$  9.01$
  Q  0.6645  12.3$  5.41$  7.99$
  Q  0.6645  12.57$  5.19$  6.49$
  Q  -1.3290  12.74$  5.49$  7.28$
  Q  0.6645  4.2$  8.47$  5.13$
  Q  0.6645  4.62$  7.27$  4.11$
  Q  -1.3290  4.53$  8.07$  4.4$
  Q  0.6645  10.87$  19.42$  7.66$
  Q  0.6645  12.02$  18.88$  8.53$
  Q  -1.3290  11.68$  19.35$  7.91$
  Q  0.6645  9.27$  18.56$  6.05$
  Q  0.6645  9.37$  19.86$  5.39$
  Q  -1.3290  9.7$  19.25$  5.8$
  Q  0.6645  3.24$  19.43$  10.67$
  Q  0.6645  3.55$  18.4$  9.55$
  Q  -1.3290  3.74$  18.88$  10.23$
  Q  0.6645  1.66$  5.35$  9.34$
  Q  0.6645  2.67$  4.64$  10.19$
  Q  -1.3290  2.44$  5.21$  9.63$
  Q  0.6645  12.79$  2.3$  8.13$
  Q  0.6645  11.63$  1.29$  8.09$
  Q  -1.3290  12.29$  1.74$  7.77$
  Q  0.6645  5$  3.58$  5.11$
  Q  0.6645  5.56$  4.64$  6.04$
  Q  -1.3290  5.21$  4.37$  5.36$
  Q  0.6645  7.85$  16.93$  6.18$
  Q  0.6645  7.56$  17.69$  7.59$
  Q  -1.3290  7.99$  17.23$  6.99$
  Q  0.6645  12.49$  8.32$  3.02$
  Q  0.6645  11.99$  8.39$  4.53$
  Q  -1.3290  11.93$  8.45$  3.64$
  Q  0.6645  13.29$  2.78$  15.07$
  Q  0.6645  12.78$  4.18$  15.58$
  Q  -1.3290  12.88$  3.35$  15.6$
  Q  0.6645  16.69$  4.69$  11.55$
  Q  0.6645  16.34$  5.09$  12.93$
  Q  -1.3290  16.69$  5.22$  12.2$
  Q  0.6645  15.95$  19.24$  11.31$
  Q  0.6645  17.07$  18.19$  11.74$
  Q  -1.3290  16.74$  18.86$  11.34$
  Q  0.6645  8.13$  10.68$  0.37$
  Q  0.6645  7.08$  11.67$  -0.23$
  Q  -1.3290  7.74$  11.43$  0.26$
  Q  0.6645  8.09$  3.14$  3.59$
  Q  0.6645  9$  3.94$  4.55$
  Q  -1.3290  8.74$  3.64$  3.81$
  Q  0.6645  19.11$  11.39$  12.82$
  Q  0.6645  18.33$  12.4$  11.93$
  Q  -1.3290  18.59$  11.61$  12.16$
*
