! NoMOPrint PrintBasis #MINIPRINT SMALLPRINT LARGEPRINT
! ALLPOP XYZFILE
#! BP86 3-21G   TightSCF
! ENGRAD
! B3LYP NormalPNO PModel #DecontractAux
#! VerySlowConv 
 %maxcore 5000
 %scf  maxiter   500  end 

%pal
    nprocs 32
end

%basis
    NewGTO O    # New basis for oxygen
        "aug-cc-pVTZ"
    end
    NewGTO C    # New basis for carbon
        "aug-cc-pVTZ"
    end
    NewGTO H    # New basis for hydrogen
        "cc-pVTZ"
    end
end

* xyz 0   1
  C  12.55  10.78  10.01  #1
  H  12.06  11.2  9.13  #2
  H  13.24  10.04  9.63  #3
  C  11.47  10.04  10.93  #4
  H  11.38  9.03  10.5  #5
  H  11.81  10.06  11.94  #6
  C  10.13  10.72  10.9  #7
  H  9.44  9.95  11.27  #8
  H  9.81  10.95  9.91  #9
  C  9.96  11.97  11.69  #10
  H  10.55  12.81  11.21  #11
  H  10.4  11.88  12.72  #12
  O  8.57  12.34  11.89  #13
  H  8.25  12.51  11.04  #14
  O  13.24  11.88  10.71  #15
  H  13.6  11.49  11.53  #16
  O  12.41  12.97  6.93  #17
  H  13.03  13.75  7  #18
  H  12.92  12.31  6.42  #19
  O  11.06  7.09  8.73  #20
  H  10.34  6.5  8.35  #21
  H  11.63  7.28  8  #22
  O  12.61  13.03  13.83  #23
  H  12.83  13.15  12.92  #24
  H  13.42  12.96  14.36  #25
  O  11.78  14.76  10.91  #26
  H  12.69  14.92  11.22  #27
  H  11.71  14.12  10.25  #28
  O  10.85  6.38  11.32  #29
  H  11.78  6.59  11.55  #30
  H  10.86  6.51  10.33  #31
  O  5.87  13.78  9.94  #32
  H  5.87  13.83  10.91  #33
  H  4.94  14  9.63  #34
  O  11.01  10.42  15.4  #35
  H  11.58  10.96  14.9  #36
  H  11.34  10.39  16.35  #37
  O  12.55  3.87  9.79  #38
  H  12.61  4.74  10.15  #39
  H  11.69  3.93  9.33  #40
  O  11.75  7.56  5.99  #41
  H  12.65  7.86  5.79  #42
  H  11.55  6.57  5.9  #43
  O  14.61  10.99  5.49  #44
  H  14.71  10.9  4.52  #45
  H  15.35  11.59  5.71  #46
  O  14.52  10.98  12.99  #47
  H  15.32  11.51  12.92  #48
  H  14.7  10.03  12.93  #49
  O  8.1  12.39  8.86  #50
  H  7.46  13.11  8.87  #51
  H  8.93  12.82  8.93  #52
  O  10.55  13.66  8.82  #53
  H  11.24  13.36  8.17  #54
  H  10.48  14.62  8.81  #55
  O  14.62  15.13  11.23  #56
  H  15.12  14.3  10.9  #57
  H  15.35  15.58  11.59  #58
  O  11.57  15.46  14.79  #59
  H  10.87  15.79  14.24  #60
  H  11.85  14.6  14.33  #61
  O  10.9  3.7  12.59  #62
  H  10.99  4.4  11.92  #63
  H  9.99  3.6  12.75  #64
  O  6.76  11.66  13.91  #65
  H  6.08  11.06  13.57  #66
  H  7.36  11.82  13.18  #67
  O  15.13  9.15  9.56  #68
  H  14.9  8.86  10.51  #69
  H  16.02  9.61  9.54  #70
  O  13.55  17.18  9.67  #71
  H  14.18  17.83  9.66  #72
  H  13.98  16.45  10.11  #73
  O  9.35  15.82  12.2  #74
  H  8.91  15.18  12.75  #75
  H  10.19  15.44  12.01  #76
  O  7.35  8.88  10.43  #77
  H  6.55  8.97  10.98  #78
  H  7.45  9.72  10.05  #79
  O  9.11  5.02  8.51  #80
  H  8.62  4.8  9.28  #81
  H  8.46  4.94  7.82  #82
  O  14.26  13.14  16.66  #83
  H  14.68  12.75  17.46  #84
  H  14.52  14.06  16.62  #85
  O  13.68  5.89  11.57  #86
  H  13.92  5.31  12.31  #87
  H  14.4  5.79  10.9  #88
  O  8.15  6.52  11.54  #89
  H  7.89  7.37  11.08  #90
  H  9.14  6.4  11.51  #91
  O  14.42  15.24  7.34  #92
  H  14.13  15.95  7.97  #93
  H  14.92  14.55  7.79  #94
  O  10.92  16.58  8.62  #95
  H  10.6  17.51  8.65  #96
  H  11.58  16.47  9.34  #97
  O  14.9  8.35  6.99  #98
  H  14.89  8.71  7.88  #99
  H  14.87  9.09  6.37  #100
  O  11.3  14.57  4.58  #101
  H  10.37  14.31  4.57  #102
  H  11.56  14.05  5.35  #103
  O  15.61  13.18  9.38  #104
  H  14.72  12.85  9.46  #105
  H  16.12  12.43  9.02  #106
  Q  0.6645  16.48$  13.29$  5.87$
  Q  0.6645  17.16$  12.13$  6.69$
  Q  -1.3290  16.6$  12.77$  6.53$
  Q  0.6645  6.26$  7.91$  8.79$
  Q  0.6645  5.5$  7.01$  7.72$
  Q  -1.3290  5.79$  7.76$  8.1$
  Q  0.6645  17.12$  2.97$  5.83$
  Q  0.6645  18.44$  3.56$  6.36$
  Q  -1.3290  17.68$  3.18$  6.42$
  Q  0.6645  3.34$  19.06$  13.02$
  Q  0.6645  1.81$  18.88$  13.33$
  Q  -1.3290  2.52$  18.8$  12.87$
  Q  0.6645  6.72$  11.64$  4.89$
  Q  0.6645  5.77$  12.38$  3.81$
  Q  -1.3290  6.52$  12.01$  4.11$
  Q  0.6645  14.47$  16.73$  15.83$
  Q  0.6645  13.41$  15.93$  15.15$
  Q  -1.3290  14.14$  16.04$  15.47$
  Q  0.6645  7.53$  10.18$  6.21$
  Q  0.6645  7.6$  11.21$  7.3$
  Q  -1.3290  7.3$  10.88$  6.62$
  Q  0.6645  2.97$  12.45$  17.12$
  Q  0.6645  4.37$  12.97$  16.78$
  Q  -1.3290  3.65$  12.54$  16.62$
  Q  0.6645  2.92$  12.99$  5.44$
  Q  0.6645  3.55$  14.03$  6.43$
  Q  -1.3290  3.28$  13.72$  5.66$
  Q  0.6645  15.59$  4.02$  4.08$
  Q  0.6645  16.64$  3.21$  3.41$
  Q  -1.3290  15.88$  3.32$  3.7$
  Q  0.6645  4.32$  9.51$  5.58$
  Q  0.6645  5.22$  8.9$  4.59$
  Q  -1.3290  4.51$  9.25$  4.83$
  Q  0.6645  11.75$  3.4$  14.37$
  Q  0.6645  12.96$  3.8$  15.1$
  Q  -1.3290  12.25$  3.39$  15.03$
  Q  0.6645  7.72$  5.08$  15.23$
  Q  0.6645  8.02$  5.86$  16.5$
  Q  -1.3290  7.53$  5.61$  15.87$
  Q  0.6645  17.07$  10.03$  5.63$
  Q  0.6645  18.48$  10.57$  5.91$
  Q  -1.3290  17.74$  10.27$  6.11$
  Q  0.6645  15.85$  7.66$  12.74$
  Q  0.6645  14.35$  7.61$  13.02$
  Q  -1.3290  15.06$  7.95$  12.7$
  Q  0.6645  6.63$  10.29$  15.31$
  Q  0.6645  7.33$  8.94$  15.11$
  Q  -1.3290  6.79$  9.45$  15.49$
  Q  0.6645  3.14$  4.26$  13.53$
  Q  0.6645  3.63$  3.69$  14.95$
  Q  -1.3290  3.25$  3.67$  14.19$
  Q  0.6645  4.91$  16.05$  15.32$
  Q  0.6645  6.28$  15.3$  14.96$
  Q  -1.3290  5.55$  15.76$  14.82$
  Q  0.6645  0.3$  10.01$  11.65$
  Q  0.6645  1.47$  10.64$  12.46$
  Q  -1.3290  1.1$  10.18$  11.86$
  Q  0.6645  6.38$  4.57$  6.48$
  Q  0.6645  5.87$  4.4$  7.99$
  Q  -1.3290  6.44$  4.51$  7.34$
  Q  0.6645  7.12$  19.24$  5.86$
  Q  0.6645  7.36$  20.52$  4.98$
  Q  -1.3290  7.33$  19.67$  5.15$
  Q  0.6645  6.25$  8.82$  17.49$
  Q  0.6645  5.93$  10.02$  18.46$
  Q  -1.3290  6.08$  9.2$  18.25$
  Q  0.6645  19.67$  13.82$  18.29$
  Q  0.6645  20.19$  13.67$  16.88$
  Q  -1.3290  19.62$  13.6$  17.51$
  Q  0.6645  13.54$  16.81$  19.13$
  Q  0.6645  13.77$  17.22$  17.69$
  Q  -1.3290  13.35$  16.9$  18.34$
  Q  0.6645  5.02$  14.43$  13.47$
  Q  0.6645  5.48$  12.99$  13.27$
  Q  -1.3290  5.16$  13.74$  13.02$
  Q  0.6645  19.29$  10.35$  18.12$
  Q  0.6645  18.62$  11.65$  18.34$
  Q  -1.3290  18.7$  10.83$  18.42$
  Q  0.6645  18.81$  9.85$  14.36$
  Q  0.6645  17.73$  10.12$  15.47$
  Q  -1.3290  18.23$  10.31$  14.8$
  Q  0.6645  8.59$  12.39$  17.4$
  Q  0.6645  9.27$  13.55$  18.16$
  Q  -1.3290  8.71$  12.93$  18.05$
  Q  0.6645  4.86$  20.7$  8.96$
  Q  0.6645  3.67$  19.97$  8.1$
  Q  -1.3290  4.49$  20.1$  8.4$
  Q  0.6645  10.36$  8.67$  5.24$
  Q  0.6645  10.15$  9.66$  4.07$
  Q  -1.3290  9.94$  9.02$  4.55$
  Q  0.6645  10.53$  1.83$  8.21$
  Q  0.6645  9.73$  3.1$  8.27$
  Q  -1.3290  10.44$  2.65$  8.16$
  Q  0.6645  5.64$  4.56$  16.43$
  Q  0.6645  4.46$  4.28$  17.41$
  Q  -1.3290  5.08$  4.06$  16.84$
  Q  0.6645  20.63$  3.38$  7.08$
  Q  0.6645  20.01$  4.69$  7.34$
  Q  -1.3290  20.21$  4.05$  6.85$
  Q  0.6645  10.2$  16.99$  18.02$
  Q  0.6645  11.5$  17.58$  18.25$
  Q  -1.3290  10.68$  17.61$  18.25$
  Q  0.6645  4.13$  9.53$  11.51$
  Q  0.6645  4.35$  9.62$  10.03$
  Q  -1.3290  4.33$  9.19$  10.76$
  Q  0.6645  12.19$  11.2$  18.54$
  Q  0.6645  13.05$  10.31$  17.66$
  Q  -1.3290  12.34$  10.5$  18.06$
  Q  0.6645  8.97$  21.35$  15.21$
  Q  0.6645  8.81$  20.35$  14.09$
  Q  -1.3290  8.77$  21.11$  14.42$
  Q  0.6645  6.38$  12.86$  21.47$
  Q  0.6645  6.4$  13.59$  20.12$
  Q  -1.3290  6.15$  13.45$  20.92$
  Q  0.6645  0.93$  8.14$  12.3$
  Q  0.6645  0.13$  7.15$  11.42$
  Q  -1.3290  0.39$  7.51$  12.15$
  Q  0.6645  20.08$  16.51$  6.68$
  Q  0.6645  19.42$  16.33$  5.31$
  Q  -1.3290  19.6$  16.13$  6.11$
  Q  0.6645  14.31$  9.97$  2$
  Q  0.6645  15.18$  11.09$  2.34$
  Q  -1.3290  14.7$  10.48$  2.52$
  Q  0.6645  17.82$  3.46$  14.76$
  Q  0.6645  16.43$  2.76$  14.73$
  Q  -1.3290  17.02$  3.32$  15.03$
  Q  0.6645  2.66$  14.74$  8.65$
  Q  0.6645  3.89$  15.59$  8.45$
  Q  -1.3290  3.47$  14.88$  8.45$
  Q  0.6645  13.14$  20.98$  9.49$
  Q  0.6645  12.14$  21.77$  10.49$
  Q  -1.3290  12.61$  21.1$  10.16$
  Q  0.6645  8.01$  16.15$  17.5$
  Q  0.6645  7.69$  17.29$  16.65$
  Q  -1.3290  8.19$  16.68$  16.92$
  Q  0.6645  12.23$  17.16$  1.02$
  Q  0.6645  12.87$  17.1$  2.49$
  Q  -1.3290  12.84$  17.18$  1.63$
  Q  0.6645  1.4$  14.53$  13.38$
  Q  0.6645  1.81$  15.56$  12.35$
  Q  -1.3290  1.25$  15.19$  12.87$
  Q  0.6645  20.88$  12.22$  5.86$
  Q  0.6645  20.64$  11.63$  4.48$
  Q  -1.3290  20.45$  12.07$  5.18$
  Q  0.6645  3.51$  17.47$  16.59$
  Q  0.6645  4.03$  16.82$  17.97$
  Q  -1.3290  3.95$  16.91$  17.14$
  Q  0.6645  10.21$  19.26$  15.43$
  Q  0.6645  10.33$  18.85$  16.98$
  Q  -1.3290  10.28$  19.38$  16.27$
  Q  0.6645  1.85$  10.72$  10.06$
  Q  0.6645  2.73$  11.34$  9.05$
  Q  -1.3290  2.08$  11.32$  9.51$
  Q  0.6645  6.7$  7.77$  19.48$
  Q  0.6645  6.85$  6.2$  19.8$
  Q  -1.3290  6.96$  7.03$  19.95$
  Q  0.6645  16.34$  15.05$  4.64$
  Q  0.6645  17.8$  14.83$  4.95$
  Q  -1.3290  17.07$  14.6$  4.63$
  Q  0.6645  11.38$  14.79$  16.47$
  Q  0.6645  12.04$  15.23$  17.69$
  Q  -1.3290  11.43$  14.85$  17.26$
  Q  0.6645  16.24$  5.25$  6.24$
  Q  0.6645  15.07$  4.35$  6.6$
  Q  -1.3290  15.46$  4.94$  6.15$
  Q  0.6645  4.06$  17.71$  7.56$
  Q  0.6645  2.71$  18.2$  6.91$
  Q  -1.3290  3.47$  17.81$  6.9$
  Q  0.6645  5.9$  3.39$  12.04$
  Q  0.6645  5.2$  3.22$  13.5$
  Q  -1.3290  5.74$  3.03$  12.84$
  Q  0.6645  21.32$  14.8$  11.92$
  Q  0.6645  19.95$  14.44$  11.39$
  Q  -1.3290  20.48$  14.78$  11.9$
  Q  0.6645  17.56$  12.55$  4.03$
  Q  0.6645  17.01$  12.23$  2.62$
  Q  -1.3290  17.45$  12.07$  3.33$
  Q  0.6645  2.39$  10.82$  4.77$
  Q  0.6645  2.64$  10.93$  6.3$
  Q  -1.3290  2.21$  11.1$  5.56$
  Q  0.6645  16.63$  7.25$  6.7$
  Q  0.6645  18.09$  7.12$  6.02$
  Q  -1.3290  17.4$  6.87$  6.46$
  Q  0.6645  10.83$  9.76$  20.18$
  Q  0.6645  10.77$  8.22$  20.53$
  Q  -1.3290  11.15$  9$  20.45$
  Q  0.6645  21.02$  10.84$  7.73$
  Q  0.6645  22.19$  11.82$  8.17$
  Q  -1.3290  21.58$  11.51$  7.68$
  Q  0.6645  17.93$  10.18$  8.33$
  Q  0.6645  18.27$  10.8$  9.7$
  Q  -1.3290  17.76$  10.59$  9.07$
  Q  0.6645  13.93$  19.63$  14.08$
  Q  0.6645  12.69$  20.44$  14.18$
  Q  -1.3290  13.34$  20.05$  14.54$
  Q  0.6645  19.67$  18.77$  12.94$
  Q  0.6645  19.99$  17.32$  12.62$
  Q  -1.3290  20.16$  18.11$  12.81$
  Q  0.6645  16.41$  5.9$  9.27$
  Q  0.6645  15.68$  7.24$  9.45$
  Q  -1.3290  15.85$  6.42$  9.58$
  Q  0.6645  18.82$  13.13$  9.93$
  Q  0.6645  18.25$  12.74$  11.42$
  Q  -1.3290  18.8$  12.76$  10.7$
  Q  0.6645  9.6$  18.31$  6.45$
  Q  0.6645  10.97$  18.81$  6.78$
  Q  -1.3290  10.17$  18.77$  6.87$
  Q  0.6645  17.71$  18.9$  16.68$
  Q  0.6645  17.8$  17.94$  15.56$
  Q  -1.3290  17.53$  18.66$  15.92$
  Q  0.6645  3.25$  13.26$  12.67$
  Q  0.6645  2.07$  12.53$  11.9$
  Q  -1.3290  2.51$  12.79$  12.56$
  Q  0.6645  6.04$  16.43$  4.62$
  Q  0.6645  4.94$  16.94$  5.57$
  Q  -1.3290  5.74$  16.78$  5.3$
  Q  0.6645  8.09$  10.66$  20.4$
  Q  0.6645  9$  11.32$  19.41$
  Q  -1.3290  8.84$  10.76$  20.01$
  Q  0.6645  12.47$  13.87$  1.7$
  Q  0.6645  11.49$  14.13$  2.76$
  Q  -1.3290  11.72$  13.85$  2.03$
  Q  0.6645  2.19$  15.18$  5.06$
  Q  0.6645  1.92$  16.64$  4.41$
  Q  -1.3290  1.73$  15.86$  4.79$
  Q  0.6645  9.8$  12.01$  21.31$
  Q  0.6645  10.85$  12.68$  22.24$
  Q  -1.3290  10.4$  12.55$  21.53$
  Q  0.6645  16.29$  19.22$  9.56$
  Q  0.6645  16.81$  17.8$  9.62$
  Q  -1.3290  16.36$  18.46$  9.86$
  Q  0.6645  8.38$  7.67$  13.2$
  Q  0.6645  7.81$  6.93$  14.46$
  Q  -1.3290  8.12$  7.6$  14.01$
  Q  0.6645  8.66$  10.79$  2.18$
  Q  0.6645  7.25$  10.79$  2.85$
  Q  -1.3290  7.82$  10.65$  2.23$
  Q  0.6645  15.32$  4.37$  15.47$
  Q  0.6645  14.52$  4.73$  16.82$
  Q  -1.3290  14.63$  4.58$  15.97$
  Q  0.6645  17.74$  5.77$  12.19$
  Q  0.6645  17.38$  6.34$  13.69$
  Q  -1.3290  17.42$  6.33$  12.81$
  Q  0.6645  2.86$  11.25$  15.5$
  Q  0.6645  1.29$  11.23$  15.49$
  Q  -1.3290  2.09$  10.91$  15.4$
  Q  0.6645  18.12$  13.5$  16.07$
  Q  0.6645  16.58$  13.46$  16.08$
  Q  -1.3290  17.36$  13.53$  15.75$
  Q  0.6645  5.32$  4.86$  4.48$
  Q  0.6645  4.31$  5.55$  5.31$
  Q  -1.3290  4.98$  5.08$  5.2$
  Q  0.6645  8.67$  2.93$  14.84$
  Q  0.6645  7.39$  3.39$  13.91$
  Q  -1.3290  8.16$  3.45$  14.34$
  Q  0.6645  13.02$  5.93$  0.78$
  Q  0.6645  12.11$  5.79$  2.01$
  Q  -1.3290  12.76$  6.15$  1.55$
  Q  0.6645  14.48$  8.54$  21.3$
  Q  0.6645  13.37$  9.18$  20.32$
  Q  -1.3290  14.15$  8.87$  20.56$
  Q  0.6645  15.99$  10.33$  18.24$
  Q  0.6645  14.91$  10.13$  19.32$
  Q  -1.3290  15.3$  10.51$  18.68$
  Q  0.6645  16.98$  19.18$  13.03$
  Q  0.6645  17.49$  18.95$  11.62$
  Q  -1.3290  17.55$  19.23$  12.42$
  Q  0.6645  20.49$  8.25$  13.42$
  Q  0.6645  18.97$  8.16$  12.99$
  Q  -1.3290  19.69$  8.57$  13.27$
  Q  0.6645  11.28$  7.27$  17.05$
  Q  0.6645  11.69$  8.06$  18.35$
  Q  -1.3290  11.56$  7.38$  17.84$
  Q  0.6645  1.09$  13.84$  16.43$
  Q  0.6645  2.52$  14.36$  16.08$
  Q  -1.3290  1.69$  14.44$  16.23$
  Q  0.6645  14.06$  6.36$  15.26$
  Q  0.6645  12.83$  7.04$  14.72$
  Q  -1.3290  13.64$  6.95$  14.84$
  Q  0.6645  9.58$  4.34$  17.44$
  Q  0.6645  10.03$  5.7$  17.97$
  Q  -1.3290  9.45$  5.11$  17.78$
  Q  0.6645  14.86$  20.12$  4.62$
  Q  0.6645  15.11$  18.8$  5.44$
  Q  -1.3290  15.31$  19.57$  5.09$
  Q  0.6645  17.38$  11.59$  13.48$
  Q  0.6645  17.25$  13.13$  13.5$
  Q  -1.3290  17.28$  12.36$  13.13$
  Q  0.6645  11.15$  -0.17$  13.89$
  Q  0.6645  11.92$  0.41$  12.67$
  Q  -1.3290  11.8$  0.1$  13.44$
  Q  0.6645  6.48$  16.47$  19.68$
  Q  0.6645  7.82$  15.63$  20.05$
  Q  -1.3290  7.17$  15.95$  19.55$
  Q  0.6645  18.54$  16.77$  8.35$
  Q  0.6645  18$  15.5$  9.06$
  Q  -1.3290  18.09$  16.3$  8.94$
  Q  0.6645  7.37$  16.53$  2.73$
  Q  0.6645  7.68$  15.29$  3.56$
  Q  -1.3290  7.21$  15.77$  3.08$
  Q  0.6645  2.55$  17.36$  11.64$
  Q  0.6645  3.26$  16.6$  10.5$
  Q  -1.3290  2.82$  16.69$  11.17$
  Q  0.6645  8.31$  14.33$  5.68$
  Q  0.6645  7.97$  13.29$  4.62$
  Q  -1.3290  8.41$  13.92$  4.96$
  Q  0.6645  14.57$  16.49$  4.42$
  Q  0.6645  14.92$  15.97$  5.97$
  Q  -1.3290  15.02$  16.29$  5.13$
  Q  0.6645  11.99$  17.73$  4.36$
  Q  0.6645  12$  16.18$  4.72$
  Q  -1.3290  12.32$  16.96$  4.52$
  Q  0.6645  3.71$  5.51$  9.01$
  Q  0.6645  3.81$  4.1$  9.22$
  Q  -1.3290  4.16$  4.83$  9.08$
  Q  0.6645  7.82$  18.17$  10.57$
  Q  0.6645  8.14$  16.72$  11.12$
  Q  -1.3290  7.64$  17.39$  10.88$
  Q  0.6645  19.34$  6.33$  9.26$
  Q  0.6645  18.37$  6.48$  7.93$
  Q  -1.3290  19.1$  6.38$  8.41$
  Q  0.6645  6.64$  19.47$  8.03$
  Q  0.6645  8.09$  19.12$  8.52$
  Q  -1.3290  7.39$  19.04$  8.06$
  Q  0.6645  12.6$  17.88$  7.77$
  Q  0.6645  12.94$  17.5$  6.29$
  Q  -1.3290  12.87$  18.03$  6.97$
  Q  0.6645  18.93$  10.44$  2.88$
  Q  0.6645  20.19$  9.61$  3.04$
  Q  -1.3290  19.74$  10.27$  2.79$
  Q  0.6645  12.25$  17.8$  11.49$
  Q  0.6645  12.1$  19.32$  11.19$
  Q  -1.3290  11.89$  18.59$  11.54$
  Q  0.6645  20.69$  13.59$  8.17$
  Q  0.6645  19.52$  14.21$  7.7$
  Q  -1.3290  20.02$  14$  8.3$
  Q  0.6645  11.98$  9.29$  0.49$
  Q  0.6645  12.33$  8.23$  1.6$
  Q  -1.3290  12.18$  9.03$  1.27$
  Q  0.6645  16.28$  3.8$  9.72$
  Q  0.6645  16.61$  4.01$  8.26$
  Q  -1.3290  16.8$  4.03$  9.08$
  Q  0.6645  6.99$  7.8$  5.66$
  Q  0.6645  8.07$  8.19$  4.68$
  Q  -1.3290  7.28$  8.18$  5$
  Q  0.6645  16.93$  8.31$  16.18$
  Q  0.6645  15.68$  9.18$  16.54$
  Q  -1.3290  16.53$  8.95$  16.54$
  Q  0.6645  0.59$  8.45$  7.21$
  Q  0.6645  1.58$  7.38$  6.61$
  Q  -1.3290  1.32$  7.96$  7.19$
  Q  0.6645  11.35$  2.66$  16.8$
  Q  0.6645  10.41$  1.53$  17.41$
  Q  -1.3290  10.81$  2.29$  17.37$
  Q  0.6645  15.26$  19.07$  11.95$
  Q  0.6645  15.23$  17.87$  12.81$
  Q  -1.3290  15$  18.65$  12.6$
  Q  0.6645  -0.26$  15.41$  9.23$
  Q  0.6645  0.61$  16.16$  8.35$
  Q  -1.3290  0.46$  15.58$  8.92$
  Q  0.6645  8.24$  14$  15.19$
  Q  0.6645  8.42$  15.5$  15.49$
  Q  -1.3290  8.27$  14.85$  15.02$
  Q  0.6645  14.23$  10.07$  15.18$
  Q  0.6645  13.88$  8.59$  15.52$
  Q  -1.3290  14.05$  9.4$  15.69$
  Q  0.6645  5.88$  17.17$  9.83$
  Q  0.6645  4.97$  18.31$  9.35$
  Q  -1.3290  5.14$  17.53$  9.59$
  Q  0.6645  15.75$  18.34$  16.17$
  Q  0.6645  14.31$  19.03$  16.16$
  Q  -1.3290  14.91$  18.42$  16.3$
  Q  0.6645  19.34$  16.41$  15.29$
  Q  0.6645  18.11$  15.51$  15.45$
  Q  -1.3290  18.53$  16.21$  15.23$
  Q  0.6645  10.18$  7.3$  14.77$
  Q  0.6645  11.02$  8.58$  15.22$
  Q  -1.3290  10.81$  7.74$  15.14$
  Q  0.6645  4.39$  14.22$  3.81$
  Q  0.6645  5.56$  14.44$  2.92$
  Q  -1.3290  4.81$  14.12$  3.12$
  Q  0.6645  16.31$  7.7$  4.13$
  Q  0.6645  16.03$  8.91$  3.26$
  Q  -1.3290  16.45$  8.48$  3.83$
  Q  0.6645  4.19$  9.25$  7.77$
  Q  0.6645  2.67$  9.14$  7.41$
  Q  -1.3290  3.44$  9.52$  7.53$
  Q  0.6645  7.77$  16.5$  6.9$
  Q  0.6645  9.23$  16.35$  7.4$
  Q  -1.3290  8.55$  16.18$  6.93$
  Q  0.6645  12.19$  13.5$  18.53$
  Q  0.6645  11.45$  12.99$  19.84$
  Q  -1.3290  12$  12.98$  19.2$
  Q  0.6645  15.17$  1.95$  10.91$
  Q  0.6645  14.15$  3.04$  10.3$
  Q  -1.3290  14.92$  2.72$  10.59$
  Q  0.6645  2.22$  8.2$  17.02$
  Q  0.6645  1.93$  8.94$  15.76$
  Q  -1.3290  1.97$  8.27$  16.25$
  Q  0.6645  5.11$  11.17$  8.4$
  Q  0.6645  5.3$  12.07$  9.68$
  Q  -1.3290  5.08$  11.38$  9.25$
  Q  0.6645  15.18$  12.28$  20.05$
  Q  0.6645  14.05$  13.25$  19.81$
  Q  -1.3290  14.82$  13.05$  20$
  Q  0.6645  9.38$  16.94$  5.11$
  Q  0.6645  8.52$  18.1$  4.48$
  Q  -1.3290  9.2$  17.56$  4.59$
  Q  0.6645  19.86$  8.58$  5.23$
  Q  0.6645  18.49$  8.49$  4.47$
  Q  -1.3290  19.24$  8.19$  4.82$
  Q  0.6645  6.56$  18.58$  15.39$
  Q  0.6645  5.73$  18.1$  16.6$
  Q  -1.3290  6.36$  18.53$  16.22$
  Q  0.6645  17.31$  5.44$  15.67$
  Q  0.6645  18.55$  6.5$  15.86$
  Q  -1.3290  17.76$  6.19$  15.59$
  Q  0.6645  20.57$  9.3$  9.25$
  Q  0.6645  20.12$  8.1$  8.21$
  Q  -1.3290  20.53$  8.83$  8.51$
  Q  0.6645  19.11$  4.09$  11.17$
  Q  0.6645  18.19$  4.56$  10.1$
  Q  -1.3290  18.74$  4.69$  10.73$
  Q  0.6645  9.8$  15.73$  21.21$
  Q  0.6645  9.22$  14.23$  21.16$
  Q  -1.3290  9.16$  15.1$  21.16$
  Q  0.6645  8.14$  11.8$  14.97$
  Q  0.6645  9.6$  11.81$  15.66$
  Q  -1.3290  8.8$  12.09$  15.48$
  Q  0.6645  3.73$  11.29$  13.1$
  Q  0.6645  3.92$  9.78$  13.63$
  Q  -1.3290  4.07$  10.48$  13.15$
  Q  0.6645  9.05$  20.48$  10.27$
  Q  0.6645  10.03$  19.46$  10.64$
  Q  -1.3290  9.4$  19.73$  10.21$
  Q  0.6645  10.43$  18.37$  13.01$
  Q  0.6645  9.07$  18.03$  13.61$
  Q  -1.3290  9.79$  18.45$  13.57$
  Q  0.6645  12.37$  4.32$  5.52$
  Q  0.6645  11.28$  4.17$  6.46$
  Q  -1.3290  11.69$  4.58$  5.89$
  Q  0.6645  6.74$  13.47$  17.55$
  Q  0.6645  6.02$  14.56$  18.15$
  Q  -1.3290  6.06$  13.89$  17.72$
  Q  0.6645  3.7$  7.66$  15.46$
  Q  0.6645  5.21$  8.18$  15.16$
  Q  -1.3290  4.42$  7.87$  15.03$
  Q  0.6645  7.13$  5.18$  10.97$
  Q  0.6645  5.9$  4.75$  10.19$
  Q  -1.3290  6.62$  4.64$  10.6$
  Q  0.6645  11.08$  2.29$  11.03$
  Q  0.6645  10.14$  1.13$  10.7$
  Q  -1.3290  10.89$  1.46$  10.89$
  Q  0.6645  6.73$  17.07$  13.64$
  Q  0.6645  6.96$  18.11$  12.65$
  Q  -1.3290  6.94$  17.82$  13.44$
  Q  0.6645  2.12$  7.45$  9.31$
  Q  0.6645  3.27$  7.69$  10.24$
  Q  -1.3290  2.7$  7.22$  9.87$
  Q  0.6645  8.1$  1.2$  8.04$
  Q  0.6645  7.49$  2.59$  8.18$
  Q  -1.3290  7.89$  1.9$  8.46$
  Q  0.6645  14.6$  1.91$  6.69$
  Q  0.6645  13.61$  2.55$  7.65$
  Q  -1.3290  14.28$  2.55$  7.15$
  Q  0.6645  16.23$  4.69$  12.67$
  Q  0.6645  15.19$  3.63$  12.2$
  Q  -1.3290  15.59$  4.15$  12.78$
  Q  0.6645  -0.31$  11.64$  16.79$
  Q  0.6645  -0.49$  12.46$  15.52$
  Q  -1.3290  -0.07$  12.22$  16.24$
  Q  0.6645  3.91$  6.64$  13.39$
  Q  0.6645  3.49$  6.15$  12$
  Q  -1.3290  3.68$  6.06$  12.8$
  Q  0.6645  14.7$  6.02$  18.62$
  Q  0.6645  13.23$  5.91$  18.16$
  Q  -1.3290  13.98$  5.62$  18.41$
  Q  0.6645  11.24$  10.38$  2.32$
  Q  0.6645  10.94$  11.93$  2.65$
  Q  -1.3290  10.78$  11.06$  2.6$
  Q  0.6645  13.99$  15.55$  1.7$
  Q  0.6645  15.32$  14.79$  1.43$
  Q  -1.3290  14.5$  14.86$  1.66$
  Q  0.6645  20.17$  11.11$  10.85$
  Q  0.6645  19.9$  9.79$  11.72$
  Q  -1.3290  20.23$  10.29$  11.06$
  Q  0.6645  16.96$  16.4$  13.86$
  Q  0.6645  15.54$  16.02$  14.05$
  Q  -1.3290  16.18$  16.34$  13.61$
  Q  0.6645  7.99$  7.04$  2.03$
  Q  0.6645  9.12$  8.07$  2.44$
  Q  -1.3290  8.78$  7.4$  2.05$
  Q  0.6645  14.54$  6.05$  2.62$
  Q  0.6645  15.01$  5.99$  4.11$
  Q  -1.3290  15.09$  6.05$  3.27$
  Q  0.6645  20.24$  13.4$  13.57$
  Q  0.6645  19.4$  12.24$  14.34$
  Q  -1.3290  20.09$  12.71$  14.1$
*
